
     RDKit          3D

 46 48  0  0  0  0  0  0  0  0999 V2000
   32.9089  113.6716   94.1386 C   0  0  0  0  0  0  0  0  0  0  0  0
   31.7991  113.2752   94.0118 C   0  0  0  0  0  0  0  0  0  0  0  0
   30.8164  113.2215   94.6858 C   0  0  0  0  0  0  0  0  0  0  0  0
   29.9322  112.7458   95.0469 C   0  0  0  0  0  0  0  0  0  0  0  0
   29.1578  111.9426   94.2810 C   0  0  0  0  0  0  0  0  0  0  0  0
   29.8651  111.6436   93.0554 C   0  0  0  0  0  0  0  0  0  0  0  0
   31.1270  112.2661   92.8924 C   0  0  0  0  0  0  0  0  0  0  0  0
   33.4026  114.8614   93.4743 N   0  0  0  0  0  0  0  0  0  0  0  0
   32.6853  115.6315   92.7719 C   0  0  0  0  0  0  0  0  0  0  0  0
   34.7777  115.2826   93.5535 C   0  0  0  0  0  0  0  0  0  0  0  0
   35.8102  114.4862   93.9908 C   0  0  0  0  0  0  0  0  0  0  0  0
   36.2837  114.8918   95.1311 C   0  0  0  0  0  0  0  0  0  0  0  0
   37.2568  114.0229   95.8573 C   0  0  0  0  0  0  0  0  0  0  0  0
   37.4616  112.7920   95.3633 C   0  0  0  0  0  0  0  0  0  0  0  0
   36.8388  112.3935   94.1969 C   0  0  0  0  0  0  0  0  0  0  0  0
   35.9279  113.2301   93.5742 C   0  0  0  0  0  0  0  0  0  0  0  0
   31.6283  115.9860   93.2407 O   0  0  0  0  0  0  0  0  0  0  0  0
   33.0572  115.9870   91.5634 N   0  0  0  0  0  0  0  0  0  0  0  0
   34.2171  115.6873   91.1078 O   0  0  0  0  0  0  0  0  0  0  0  0
   28.9847  113.2235   96.3526 C   0  0  0  0  0  0  0  0  0  0  0  0
   27.7345  113.9288   96.1279 C   0  0  0  0  0  0  0  0  0  0  0  0
   27.2137  114.2088   94.9058 C   0  0  0  0  0  0  0  0  0  0  0  0
   25.9954  114.9839   94.9240 C   0  0  0  0  0  0  0  0  0  0  0  0
   27.0673  114.4031   97.2690 C   0  0  0  0  0  0  0  0  0  0  0  0
   26.0246  115.2504   97.2392 C   0  0  0  0  0  0  0  0  0  0  0  0
   25.4971  115.5428   96.0187 C   0  0  0  0  0  0  0  0  0  0  0  0
   33.0471  113.8465   95.2158 H   0  0  0  0  0  0  0  0  0  0  0  0
   33.4838  112.8822   93.6323 H   0  0  0  0  0  0  0  0  0  0  0  0
   30.8280  114.1790   95.2272 H   0  0  0  0  0  0  0  0  0  0  0  0
   28.1550  111.5771   94.5470 H   0  0  0  0  0  0  0  0  0  0  0  0
   29.4466  110.9705   92.2926 H   0  0  0  0  0  0  0  0  0  0  0  0
   31.6899  112.0658   91.9688 H   0  0  0  0  0  0  0  0  0  0  0  0
   35.0524  115.5904   92.5338 H   0  0  0  0  0  0  0  0  0  0  0  0
   34.7212  116.0134   94.3737 H   0  0  0  0  0  0  0  0  0  0  0  0
   35.9729  115.8586   95.5539 H   0  0  0  0  0  0  0  0  0  0  0  0
   37.7823  114.3758   96.7569 H   0  0  0  0  0  0  0  0  0  0  0  0
   38.1301  112.0958   95.8910 H   0  0  0  0  0  0  0  0  0  0  0  0
   37.0668  111.4094   93.7616 H   0  0  0  0  0  0  0  0  0  0  0  0
   35.3088  112.8590   92.7441 H   0  0  0  0  0  0  0  0  0  0  0  0
   28.7371  112.3111   96.9149 H   0  0  0  0  0  0  0  0  0  0  0  0
   29.6105  113.9757   96.8551 H   0  0  0  0  0  0  0  0  0  0  0  0
   27.6848  113.8704   93.9712 H   0  0  0  0  0  0  0  0  0  0  0  0
   25.4507  115.1182   93.9778 H   0  0  0  0  0  0  0  0  0  0  0  0
   27.4214  114.0584   98.2517 H   0  0  0  0  0  0  0  0  0  0  0  0
   25.6150  115.6888   98.1612 H   0  0  0  0  0  0  0  0  0  0  0  0
   24.6543  116.2453   95.9402 H   0  0  0  0  0  0  0  0  0  0  0  0
  1  2  1  0
  1  8  1  0
  8  9  1  0
  8 10  1  0
 10 11  1  0
  9 17  2  0
  9 18  1  0
 18 19  2  0
  4 20  1  0
 20 21  1  0
 11 12  2  0
 12 13  1  0
 13 14  2  0
 14 15  1  0
 15 16  2  0
 16 11  1  0
  2  3  2  0
  3  4  1  0
  4  5  2  0
  5  6  1  0
  6  7  2  0
  7  2  1  0
 21 22  2  0
 22 23  1  0
 23 26  2  0
 26 25  1  0
 25 24  2  0
 24 21  1  0
  1 27  1  0
  1 28  1  0
  3 29  1  0
  5 30  1  0
  6 31  1  0
  7 32  1  0
 10 33  1  0
 10 34  1  0
 12 35  1  0
 13 36  1  0
 14 37  1  0
 15 38  1  0
 16 39  1  0
 20 40  1  0
 20 41  1  0
 22 42  1  0
 23 43  1  0
 24 44  1  0
 25 45  1  0
 26 46  1  0
M  END
$$$$

     RDKit          3D

 47 50  0  0  0  0  0  0  0  0999 V2000
   30.2383  126.0201    7.6918 C   0  0  0  0  0  0  0  0  0  0  0  0
   23.3606  126.7432   14.0222 C   0  0  0  0  0  0  0  0  0  0  0  0
   25.0814  122.6615   18.1478 C   0  0  0  0  0  0  0  0  0  0  0  0
   23.9400  127.4912    9.7525 O   0  0  0  0  0  0  0  0  0  0  0  0
   23.2397  124.5836   13.2803 O   0  0  0  0  0  0  0  0  0  0  0  0
   23.6449  127.0301   12.6117 C   0  0  1  0  0  0  0  0  0  0  0  0
   24.6696  128.0958   12.4864 O   0  0  0  0  0  0  0  0  0  0  0  0
   28.5386  127.6248    7.8297 C   0  0  0  0  0  0  0  0  0  0  0  0
   23.7237  124.7501   12.1055 O   0  0  0  0  0  0  0  0  0  0  0  0
   22.7662  123.4643   18.1373 N   0  0  0  0  0  0  0  0  0  0  0  0
   26.2126  126.5635    8.3087 C   0  0  0  0  0  0  0  0  0  0  0  0
   24.1239  126.2399   10.1819 C   0  0  1  0  0  0  0  0  0  0  0  0
   23.9378  123.4111   17.4679 C   0  0  0  0  0  0  0  0  0  0  0  0
   21.9435  124.8947   16.3642 C   0  0  0  0  0  0  0  0  0  0  0  0
   24.7119  125.0649    9.6054 C   0  0  0  0  0  0  0  0  0  0  0  0
   24.1468  124.0285   16.2286 N   0  0  0  0  0  0  0  0  0  0  0  0
   27.6267  126.5649    8.0294 C   0  0  0  0  0  0  0  0  0  0  0  0
   29.8801  127.3088    7.6876 N   0  0  0  0  0  0  0  0  0  0  0  0
   29.4149  124.9806    7.8441 N   0  0  0  0  0  0  0  0  0  0  0  0
   21.8173  124.2126   17.5834 C   0  0  0  0  0  0  0  0  0  0  0  0
   23.3208  125.3682   14.3647 C   0  0  0  0  0  0  0  0  0  0  0  0
   23.1363  124.7448   15.7021 C   0  0  0  0  0  0  0  0  0  0  0  0
   23.8390  126.0032   11.6185 C   0  0  0  0  0  0  0  0  0  0  0  0
   28.1061  125.2562    8.0367 C   0  0  0  0  0  0  0  0  0  0  0  0
   25.8519  125.2199    8.6617 C   0  0  2  0  0  0  0  0  0  0  0  0
   27.0426  124.3830    8.3094 N   0  0  0  0  0  0  0  0  0  0  0  0
   31.3071  125.7970    7.5578 H   0  0  0  0  0  0  0  0  0  0  0  0
   23.1903  127.5392   14.7620 H   0  0  0  0  0  0  0  0  0  0  0  0
   24.9698  122.7346   19.2397 H   0  0  0  0  0  0  0  0  0  0  0  0
   25.0567  121.6038   17.8467 H   0  0  0  0  0  0  0  0  0  0  0  0
   26.0414  123.1061   17.8467 H   0  0  0  0  0  0  0  0  0  0  0  0
   23.8509  128.0972   10.5302 H   0  0  0  0  0  0  0  0  0  0  0  0
   22.6317  127.3342   12.3100 H   0  0  0  0  0  0  0  0  0  0  0  0
   24.9521  128.3896   13.3886 H   0  0  0  0  0  0  0  0  0  0  0  0
   28.1944  128.6688    7.7883 H   0  0  0  0  0  0  0  0  0  0  0  0
   25.9926  127.2447    9.1439 H   0  0  0  0  0  0  0  0  0  0  0  0
   25.6409  126.9044    7.4329 H   0  0  0  0  0  0  0  0  0  0  0  0
   23.7866  126.4152    9.1497 H   0  0  0  0  0  0  0  0  0  0  0  0
   23.6168  122.4789   16.9801 H   0  0  0  0  0  0  0  0  0  0  0  0
   21.1437  124.5396   15.6976 H   0  0  0  0  0  0  0  0  0  0  0  0
   21.8829  125.9630   16.6192 H   0  0  0  0  0  0  0  0  0  0  0  0
   25.0651  124.4389   10.4381 H   0  0  0  0  0  0  0  0  0  0  0  0
   23.9081  124.6448    8.9829 H   0  0  0  0  0  0  0  0  0  0  0  0
   20.8620  124.3037   18.1212 H   0  0  0  0  0  0  0  0  0  0  0  0
   24.9160  125.9909   11.8417 H   0  0  0  0  0  0  0  0  0  0  0  0
   25.1180  124.5051    8.2612 H   0  0  0  0  0  0  0  0  0  0  0  0
   27.0749  123.3541    8.2738 H   0  0  0  0  0  0  0  0  0  0  0  0
  1 18  2  0
  1 19  1  0
  2  6  1  0
  2 21  2  0
  3 13  1  0
  4 12  1  0
  5  9  1  0
  5 21  1  0
  6  7  1  0
  6 23  1  0
  8 17  2  0
  8 18  1  0
  9 23  1  0
 10 13  1  0
 10 20  2  0
 11 17  1  0
 11 25  1  0
 12 15  1  0
 12 23  1  0
 13 16  1  0
 14 20  1  0
 14 22  1  0
 15 25  1  0
 16 22  2  0
 17 24  1  0
 19 24  2  0
 21 22  1  0
 24 26  1  0
 25 26  1  0
  1 27  1  0
  2 28  1  0
  3 29  1  0
  3 30  1  0
  3 31  1  0
  4 32  1  0
  6 33  1  6
  7 34  1  0
  8 35  1  0
 11 36  1  0
 11 37  1  0
 12 38  1  6
 13 39  1  0
 14 40  1  0
 14 41  1  0
 15 42  1  0
 15 43  1  0
 20 44  1  0
 23 45  1  0
 25 46  1  6
 26 47  1  0
M  END
$$$$

     RDKit          3D

 51 54  0  0  0  0  0  0  0  0999 V2000
   40.5965   31.4533    5.9784 C   0  0  0  0  0  0  0  0  0  0  0  0
   43.0376   28.2190   12.6503 N   0  0  0  0  0  0  0  0  0  0  0  0
   40.2817   29.4751    8.4973 C   0  0  0  0  0  0  0  0  0  0  0  0
   41.6781   28.0829   10.6725 C   0  0  1  0  0  0  0  0  0  0  0  0
   39.3716   29.0776   10.8789 C   0  0  2  0  0  0  0  0  0  0  0  0
   40.7689   28.9339   11.3995 C   0  0  0  0  0  0  0  0  0  0  0  0
   39.6951   31.6752    6.8234 C   0  0  0  0  0  0  0  0  0  0  0  0
   38.0638   28.7108    8.9959 C   0  0  0  0  0  0  0  0  0  0  0  0
   37.0788   33.3125    8.5360 C   0  0  0  0  0  0  0  0  0  0  0  0
   41.0928   29.6087   12.5635 C   0  0  0  0  0  0  0  0  0  0  0  0
   41.1782   29.2216    7.5057 C   0  0  0  0  0  0  0  0  0  0  0  0
   38.8464   31.9201    7.9413 C   0  0  0  0  0  0  0  0  0  0  0  0
   41.6511   27.5388    9.3847 C   0  0  0  0  0  0  0  0  0  0  0  0
   43.5170   26.1645    9.6180 C   0  0  0  0  0  0  0  0  0  0  0  0
   37.3971   28.0319   10.1632 C   0  0  0  0  0  0  0  0  0  0  0  0
   43.6102   26.6161   10.9861 C   0  0  0  0  0  0  0  0  0  0  0  0
   37.3478   33.1591    9.8679 C   0  0  0  0  0  0  0  0  0  0  0  0
   42.7888   27.6529   11.4370 C   0  0  0  0  0  0  0  0  0  0  0  0
   42.2585   29.1895   13.1989 C   0  0  0  0  0  0  0  0  0  0  0  0
   38.0532   28.7836   11.3660 C   0  0  0  0  0  0  0  0  0  0  0  0
   41.5621   30.6340    5.6300 C   0  0  0  0  0  0  0  0  0  0  0  0
   39.3853   29.0105    9.4664 N   0  0  0  0  0  0  0  0  0  0  0  0
   38.3130   32.2586   10.1586 C   0  0  0  0  0  0  0  0  0  0  0  0
   38.9742   31.6482    9.2322 N   0  0  0  0  0  0  0  0  0  0  0  0
   41.8553   29.4888    6.3989 C   0  0  0  0  0  0  0  0  0  0  0  0
   42.5275   26.6913    8.8173 C   0  0  0  0  0  0  0  0  0  0  0  0
   37.8307   32.7000    7.6188 N   0  0  0  0  0  0  0  0  0  0  0  0
   40.5654   32.2656    5.2373 H   0  0  0  0  0  0  0  0  0  0  0  0
   40.2428   30.5717    8.5742 H   0  0  0  0  0  0  0  0  0  0  0  0
   41.1558   27.1951   11.0585 H   0  0  0  0  0  0  0  0  0  0  0  0
   39.3145   29.8956   11.6122 H   0  0  0  0  0  0  0  0  0  0  0  0
   38.1032   28.0394    8.1254 H   0  0  0  0  0  0  0  0  0  0  0  0
   37.5213   29.6095    8.6671 H   0  0  0  0  0  0  0  0  0  0  0  0
   36.2369   33.9451    8.2182 H   0  0  0  0  0  0  0  0  0  0  0  0
   40.4697   30.4234   12.9609 H   0  0  0  0  0  0  0  0  0  0  0  0
   40.8030   27.8436    8.7540 H   0  0  0  0  0  0  0  0  0  0  0  0
   44.4794   26.3900    9.1355 H   0  0  0  0  0  0  0  0  0  0  0  0
   43.2553   25.0995    9.7035 H   0  0  0  0  0  0  0  0  0  0  0  0
   36.3067   28.1757   10.1442 H   0  0  0  0  0  0  0  0  0  0  0  0
   37.5294   26.9401   10.1865 H   0  0  0  0  0  0  0  0  0  0  0  0
   44.3277   26.1441   11.6735 H   0  0  0  0  0  0  0  0  0  0  0  0
   37.6613   34.1351   10.2667 H   0  0  0  0  0  0  0  0  0  0  0  0
   36.4236   32.7752   10.3245 H   0  0  0  0  0  0  0  0  0  0  0  0
   42.5525   29.6480   14.1546 H   0  0  0  0  0  0  0  0  0  0  0  0
   38.0949   28.1421   12.2586 H   0  0  0  0  0  0  0  0  0  0  0  0
   37.4946   29.6791   11.6759 H   0  0  0  0  0  0  0  0  0  0  0  0
   41.3200   30.2777    4.6179 H   0  0  0  0  0  0  0  0  0  0  0  0
   42.4629   31.2514    5.7621 H   0  0  0  0  0  0  0  0  0  0  0  0
   38.5414   32.0399   11.2122 H   0  0  0  0  0  0  0  0  0  0  0  0
   42.6568   28.8084    6.0754 H   0  0  0  0  0  0  0  0  0  0  0  0
   42.4568   26.4280    7.7516 H   0  0  0  0  0  0  0  0  0  0  0  0
  1  7  2  0
  1 21  1  0
  2 18  1  0
  2 19  2  0
  3 11  2  0
  3 22  1  0
  4  6  1  0
  4 13  1  0
  4 18  1  0
  5  6  1  0
  5 20  1  0
  5 22  1  0
  6 10  2  0
  7 12  2  0
  8 15  1  0
  8 22  1  0
  9 17  1  0
  9 27  2  0
 10 19  1  0
 11 25  2  0
 12 24  1  0
 12 27  1  0
 13 26  2  0
 14 16  1  0
 14 26  1  0
 15 20  1  0
 16 18  2  0
 17 23  1  0
 21 25  1  0
 23 24  2  0
  1 28  1  0
  3 29  1  0
  4 30  1  6
  5 31  1  6
  8 32  1  0
  8 33  1  0
  9 34  1  0
 10 35  1  0
 13 36  1  0
 14 37  1  0
 14 38  1  0
 15 39  1  0
 15 40  1  0
 16 41  1  0
 17 42  1  0
 17 43  1  0
 19 44  1  0
 20 45  1  0
 20 46  1  0
 21 47  1  0
 21 48  1  0
 23 49  1  0
 25 50  1  0
 26 51  1  0
M  END
$$$$

     RDKit          3D

 39 41  0  0  0  0  0  0  0  0999 V2000
   25.1019   39.7892   84.4767 C   0  0  0  0  0  0  0  0  0  0  0  0
   20.6302   39.1977   86.1808 C   0  0  0  0  0  0  0  0  0  0  0  0
   21.6383   39.9974   85.6838 C   0  0  0  0  0  0  0  0  0  0  0  0
   27.4520   39.7580   83.8169 C   0  0  1  0  0  0  0  0  0  0  0  0
   23.1243   38.1391   85.8665 C   0  0  0  0  0  0  0  0  0  0  0  0
   26.0774   37.7991   83.5662 C   0  0  0  0  0  0  0  0  0  0  0  0
   25.0271   38.4705   84.0913 C   0  0  0  0  0  0  0  0  0  0  0  0
   26.2926   40.5046   84.2586 C   0  0  0  0  0  0  0  0  0  0  0  0
   28.0205   36.2379   82.7310 C   0  0  0  0  0  0  0  0  0  0  0  0
   23.9246   40.4601   85.1044 C   0  0  0  0  0  0  0  0  0  0  0  0
   27.4737   42.6790   84.4993 O   0  0  0  0  0  0  0  0  0  0  0  0
   28.8517   40.0223   83.4528 C   0  0  0  0  0  0  0  0  0  0  0  0
   26.1984   36.2857   82.9032 Cl  0  0  0  0  0  0  0  0  0  0  0  0
   22.9262   39.4933   85.5097 C   0  0  0  0  0  0  0  0  0  0  0  0
   29.5512   38.7230   83.3194 O   0  0  0  0  0  0  0  0  0  0  0  0
   29.3606   41.0168   82.9441 O   0  0  0  0  0  0  0  0  0  0  0  0
   20.8822   37.8822   86.5425 C   0  0  0  0  0  0  0  0  0  0  0  0
   29.5519   36.1107   82.3536 C   0  0  0  0  0  0  0  0  0  0  0  0
   28.5018   37.6110   83.1700 C   0  0  2  0  0  0  0  0  0  0  0  0
   22.1563   37.3439   86.3386 C   0  0  0  0  0  0  0  0  0  0  0  0
   27.2863   38.4071   83.5488 C   0  0  0  0  0  0  0  0  0  0  0  0
   26.3100   41.9275   84.4736 C   0  0  0  0  0  0  0  0  0  0  0  0
   19.6154   39.6075   86.2916 H   0  0  0  0  0  0  0  0  0  0  0  0
   21.4236   41.0440   85.4221 H   0  0  0  0  0  0  0  0  0  0  0  0
   27.1509   39.9099   82.7699 H   0  0  0  0  0  0  0  0  0  0  0  0
   24.1323   37.7146   85.7493 H   0  0  0  0  0  0  0  0  0  0  0  0
   24.0719   37.9393   84.2156 H   0  0  0  0  0  0  0  0  0  0  0  0
   27.3110   36.2188   81.8906 H   0  0  0  0  0  0  0  0  0  0  0  0
   27.4586   35.5300   83.3580 H   0  0  0  0  0  0  0  0  0  0  0  0
   24.2607   41.0212   85.9888 H   0  0  0  0  0  0  0  0  0  0  0  0
   23.4737   41.1372   84.3640 H   0  0  0  0  0  0  0  0  0  0  0  0
   27.4286   43.6562   84.6513 H   0  0  0  0  0  0  0  0  0  0  0  0
   20.0855   37.2673   86.9864 H   0  0  0  0  0  0  0  0  0  0  0  0
   30.1533   36.0607   83.2733 H   0  0  0  0  0  0  0  0  0  0  0  0
   29.7092   35.1964   81.7626 H   0  0  0  0  0  0  0  0  0  0  0  0
   29.8579   36.9865   81.7626 H   0  0  0  0  0  0  0  0  0  0  0  0
   28.1982   38.0280   82.1984 H   0  0  0  0  0  0  0  0  0  0  0  0
   22.3597   36.2862   86.5620 H   0  0  0  0  0  0  0  0  0  0  0  0
   25.3510   42.4445   84.6252 H   0  0  0  0  0  0  0  0  0  0  0  0
  1  7  2  0
  1  8  1  0
  1 10  1  0
  2  3  2  0
  2 17  1  0
  3 14  1  0
  4  8  1  0
  4 12  1  0
  4 21  1  0
  5 14  2  0
  5 20  1  0
  6  7  1  0
  6 13  1  0
  6 21  2  0
  8 22  2  3
  9 18  1  0
  9 19  1  0
 10 14  1  0
 11 22  1  0
 12 15  1  0
 12 16  2  0
 15 19  1  0
 17 20  2  0
 19 21  1  0
  2 23  1  0
  3 24  1  0
  4 25  1  1
  5 26  1  0
  7 27  1  0
  9 28  1  0
  9 29  1  0
 10 30  1  0
 10 31  1  0
 11 32  1  0
 17 33  1  0
 18 34  1  0
 18 35  1  0
 18 36  1  0
 19 37  1  1
 20 38  1  0
 22 39  1  0
M  END
$$$$