1b9v_Lingo3DMolv2_1059973
     RDKit          3D

 47 49  0  0  0  0  0  0  0  0999 V2000
   31.4874   -6.7909   65.3233 O   0  0  0  0  0  0  0  0  0  0  0  0
   31.7874   -6.9909   64.1233 C   0  0  0  0  0  0  0  0  0  0  0  0
   31.5875   -6.0909   63.2233 N   0  0  0  0  0  0  0  0  0  0  0  0
   31.7874   -6.1909   61.8233 C   0  0  0  0  0  0  0  0  0  0  0  0
   32.2874   -7.2909   61.3233 C   0  0  0  0  0  0  0  0  0  0  0  0
   32.6874   -8.5909   62.1233 C   0  0  2  0  0  0  0  0  0  0  0  0
   32.2874   -8.3909   63.7233 C   0  0  2  0  0  0  0  0  0  0  0  0
   31.3875   -9.5909   64.2233 N   0  0  0  0  0  0  0  0  0  0  0  0
   31.9874  -10.8909   64.2233 C   0  0  0  0  0  0  0  0  0  0  0  0
   32.7874  -11.1909   65.6233 C   0  0  0  0  0  0  0  0  0  0  0  0
   33.9875  -10.1909   65.8233 N   0  0  0  0  0  4  0  0  0  0  0  0
   29.9874   -9.5909   63.9233 C   0  0  0  0  0  0  0  0  0  0  0  0
   29.3875   -8.6909   63.3233 O   0  0  0  0  0  0  0  0  0  0  0  0
   29.1874  -10.7909   64.4233 C   0  0  0  0  0  0  0  0  0  0  0  0
   28.8875  -11.8909   63.5233 C   0  0  0  0  0  0  0  0  0  0  0  0
   28.1874  -12.9909   63.9233 C   0  0  0  0  0  0  0  0  0  0  0  0
   27.7874  -13.0909   65.2233 N   0  0  0  0  0  4  0  0  0  0  0  0
   27.9874  -12.0909   66.1233 C   0  0  0  0  0  0  0  0  0  0  0  0
   28.6874  -10.8909   65.7233 C   0  0  0  0  0  0  0  0  0  0  0  0
   28.8875   -9.7909   66.8233 C   0  0  0  0  0  0  0  0  0  0  0  0
   28.3875   -9.9909   68.1233 C   0  0  0  0  0  0  0  0  0  0  0  0
   27.6874   -8.8909   67.2233 C   0  0  0  0  0  0  0  0  0  0  0  0
   34.1874   -8.8909   61.9233 N   0  0  0  0  0  4  0  0  0  0  0  0
   31.2380   -5.1839   63.5641 H   0  0  0  0  0  0  0  0  0  0  0  0
   31.5244   -5.3509   61.1637 H   0  0  0  0  0  0  0  0  0  0  0  0
   32.4452   -7.3122   60.2349 H   0  0  0  0  0  0  0  0  0  0  0  0
   32.1323   -9.4616   61.7442 H   0  0  0  0  0  0  0  0  0  0  0  0
   33.2331   -8.4345   64.2836 H   0  0  0  0  0  0  0  0  0  0  0  0
   31.1991  -11.6472   64.0943 H   0  0  0  0  0  0  0  0  0  0  0  0
   32.7136  -10.9330   63.3981 H   0  0  0  0  0  0  0  0  0  0  0  0
   32.0880  -11.0840   66.4655 H   0  0  0  0  0  0  0  0  0  0  0  0
   33.1914  -12.2131   65.5797 H   0  0  0  0  0  0  0  0  0  0  0  0
   34.1543  -10.0519   66.8302 H   0  0  0  0  0  0  0  0  0  0  0  0
   34.8348  -10.5795   65.3853 H   0  0  0  0  0  0  0  0  0  0  0  0
   33.7581   -9.2874   65.3853 H   0  0  0  0  0  0  0  0  0  0  0  0
   29.2374  -11.8347   62.4820 H   0  0  0  0  0  0  0  0  0  0  0  0
   27.9480  -13.7890   63.2051 H   0  0  0  0  0  0  0  0  0  0  0  0
   27.3178  -13.9533   65.5342 H   0  0  0  0  0  0  0  0  0  0  0  0
   27.6172  -12.1951   67.1539 H   0  0  0  0  0  0  0  0  0  0  0  0
   29.8957   -9.5792   66.4378 H   0  0  0  0  0  0  0  0  0  0  0  0
   27.8502  -10.9206   68.3623 H   0  0  0  0  0  0  0  0  0  0  0  0
   28.8397   -9.9841   69.1260 H   0  0  0  0  0  0  0  0  0  0  0  0
   26.6865   -9.0578   66.7988 H   0  0  0  0  0  0  0  0  0  0  0  0
   27.4577   -7.8167   67.2803 H   0  0  0  0  0  0  0  0  0  0  0  0
   34.6447   -8.9824   62.8417 H   0  0  0  0  0  0  0  0  0  0  0  0
   34.2946   -9.7700   61.3974 H   0  0  0  0  0  0  0  0  0  0  0  0
   34.6245   -8.1207   61.3974 H   0  0  0  0  0  0  0  0  0  0  0  0
  1  2  2  0
  2  3  1  0
  3  4  1  0
  4  5  2  0
  5  6  1  0
  6  7  1  0
  7  2  1  0
  8  9  1  0
  9 10  1  0
 10 11  1  0
  8 12  1  0
 12 13  2  0
  7  8  1  0
 14 15  2  0
 15 16  1  0
 16 17  2  0
 17 18  1  0
 18 19  2  0
 19 14  1  0
 12 14  1  0
 20 21  1  0
 21 22  1  0
 22 20  1  0
 19 20  1  0
  6 23  1  0
  3 24  1  0
  4 25  1  0
  5 26  1  0
  6 27  1  6
  7 28  1  1
  9 29  1  0
  9 30  1  0
 10 31  1  0
 10 32  1  0
 11 33  1  0
 11 34  1  0
 11 35  1  0
 15 36  1  0
 16 37  1  0
 17 38  1  0
 18 39  1  0
 20 40  1  0
 21 41  1  0
 21 42  1  0
 22 43  1  0
 22 44  1  0
 23 45  1  0
 23 46  1  0
 23 47  1  0
M  CHG  3  11   1  17   1  23   1
M  END
$$$$
1b9v_Lingo3DMolv2_1146523
     RDKit          3D

 43 46  0  0  0  0  0  0  0  0999 V2000
   30.4874  -12.1909   62.9233 O   0  0  0  0  0  0  0  0  0  0  0  0
   29.0875  -12.4909   62.7233 C   0  0  0  0  0  0  0  0  0  0  0  0
   28.1874  -12.0909   63.9233 C   0  0  0  0  0  0  0  0  0  0  0  0
   28.3875  -10.5909   64.3233 C   0  0  1  0  0  0  0  0  0  0  0  0
   29.8875  -10.2909   64.4233 C   0  0  1  0  0  0  0  0  0  0  0  0
   30.6874  -10.7909   63.1233 C   0  0  0  0  0  0  0  0  0  0  0  0
   30.0875   -8.8909   65.0233 N   0  0  0  0  0  4  0  0  0  0  0  0
   31.3875   -8.1909   64.9233 C   0  0  1  0  0  0  0  0  0  0  0  0
   32.5874   -8.9909   65.4233 C   0  0  0  0  0  0  0  0  0  0  0  0
   32.4875   -9.9909   66.5233 C   0  0  0  0  0  0  0  0  0  0  0  0
   33.4875  -10.9909   66.6233 C   0  0  0  0  0  0  0  0  0  0  0  0
   34.4875  -11.0909   65.7233 N   0  0  0  0  0  0  0  0  0  0  0  0
   34.4875  -10.2909   64.7233 C   0  0  0  0  0  0  0  0  0  0  0  0
   33.5874   -9.2909   64.5233 C   0  0  0  0  0  0  0  0  0  0  0  0
   33.6874   -8.4909   63.4233 N   0  0  0  0  0  0  0  0  0  0  0  0
   32.7874   -7.4909   63.1233 C   0  0  0  0  0  0  0  0  0  0  0  0
   31.5875   -7.2909   63.8233 C   0  0  0  0  0  0  0  0  0  0  0  0
   30.9874   -6.2909   63.3233 N   0  0  0  0  0  0  0  0  0  0  0  0
   31.6874   -5.7909   62.3233 C   0  0  0  0  0  0  0  0  0  0  0  0
   32.7874   -6.4909   62.2233 N   0  0  0  0  0  4  0  0  0  0  0  0
   33.6874   -6.3909   61.4233 O   0  0  0  0  0  1  0  0  0  0  0  0
   27.6874   -9.6909   63.3233 C   0  0  0  0  0  0  0  0  0  0  0  0
   27.5875   -8.2909   63.8233 O   0  0  0  0  0  0  0  0  0  0  0  0
   28.7396  -11.9483   61.8319 H   0  0  0  0  0  0  0  0  0  0  0  0
   29.0050  -13.5818   62.6084 H   0  0  0  0  0  0  0  0  0  0  0  0
   27.1344  -12.2487   63.6471 H   0  0  0  0  0  0  0  0  0  0  0  0
   28.4674  -12.7154   64.7846 H   0  0  0  0  0  0  0  0  0  0  0  0
   27.9367  -10.3950   65.3074 H   0  0  0  0  0  0  0  0  0  0  0  0
   30.4215  -10.9075   65.1613 H   0  0  0  0  0  0  0  0  0  0  0  0
   30.3241  -10.2433   62.2413 H   0  0  0  0  0  0  0  0  0  0  0  0
   31.7610  -10.6013   63.2703 H   0  0  0  0  0  0  0  0  0  0  0  0
   29.3914   -8.2790   64.5740 H   0  0  0  0  0  0  0  0  0  0  0  0
   30.0055   -9.0672   66.0348 H   0  0  0  0  0  0  0  0  0  0  0  0
   31.2891   -7.4175   65.6993 H   0  0  0  0  0  0  0  0  0  0  0  0
   31.6557   -9.9541   67.2423 H   0  0  0  0  0  0  0  0  0  0  0  0
   33.4468  -11.7056   67.4585 H   0  0  0  0  0  0  0  0  0  0  0  0
   35.2761  -10.4227   63.9679 H   0  0  0  0  0  0  0  0  0  0  0  0
   34.4788   -8.6423   62.7816 H   0  0  0  0  0  0  0  0  0  0  0  0
   30.0833   -5.9224   63.6513 H   0  0  0  0  0  0  0  0  0  0  0  0
   31.3985   -4.9400   61.6890 H   0  0  0  0  0  0  0  0  0  0  0  0
   26.6742  -10.0787   63.1419 H   0  0  0  0  0  0  0  0  0  0  0  0
   28.2768   -9.6839   62.3946 H   0  0  0  0  0  0  0  0  0  0  0  0
   27.5876   -8.2933   64.8133 H   0  0  0  0  0  0  0  0  0  0  0  0
  1  2  1  0
  2  3  1  0
  3  4  1  0
  4  5  1  0
  5  6  1  0
  6  1  1  0
  5  7  1  0
  8  9  1  0
  9 10  2  0
 10 11  1  0
 11 12  2  0
 12 13  1  0
 13 14  2  0
 14 15  1  0
 15 16  1  0
 16 17  2  0
 17 18  1  0
 18 19  1  0
 19 20  2  0
 17  8  1  0
 14  9  1  0
 20 16  1  0
  7  8  1  0
 20 21  1  0
 22 23  1  0
  4 22  1  0
  2 24  1  0
  2 25  1  0
  3 26  1  0
  3 27  1  0
  4 28  1  1
  5 29  1  1
  6 30  1  0
  6 31  1  0
  7 32  1  0
  7 33  1  0
  8 34  1  1
 10 35  1  0
 11 36  1  0
 13 37  1  0
 15 38  1  0
 18 39  1  0
 19 40  1  0
 22 41  1  0
 22 42  1  0
 23 43  1  0
M  CHG  3   7   1  20   1  21  -1
M  END
$$$$
1b9v_Lingo3DMolv2_1224287
     RDKit          3D

 38 39  0  0  0  0  0  0  0  0999 V2000
   33.0874  -12.8909   66.6233 O   0  0  0  0  0  0  0  0  0  0  0  0
   32.0874  -12.1909   66.5233 C   0  0  0  0  0  0  0  0  0  0  0  0
   30.9874  -12.3909   67.1233 O   0  0  0  0  0  1  0  0  0  0  0  0
   32.1874  -10.9909   65.6233 C   0  0  1  0  0  0  0  0  0  0  0  0
   33.5874  -10.2909   65.5233 C   0  0  0  0  0  0  0  0  0  0  0  0
   33.3875   -9.4909   64.3233 C   0  0  0  0  0  0  0  0  0  0  0  0
   34.0874   -8.5909   63.5233 N   0  0  0  0  0  0  0  0  0  0  0  0
   33.2874   -8.1909   62.5233 C   0  0  0  0  0  0  0  0  0  0  0  0
   32.0874   -8.7909   62.6233 C   0  0  0  0  0  0  0  0  0  0  0  0
   32.0874   -9.5909   63.8233 C   0  0  0  0  0  0  0  0  0  0  0  0
   31.1874  -10.5909   64.6233 C   0  0  2  0  0  0  0  0  0  0  0  0
   29.7874  -10.0909   64.8233 C   0  0  1  0  0  0  0  0  0  0  0  0
   29.7874   -8.8909   65.5233 O   0  0  0  0  0  0  0  0  0  0  0  0
   28.9874   -9.9909   63.5233 C   0  0  0  0  0  0  0  0  0  0  0  0
   27.7874   -8.9909   63.5233 C   0  0  0  0  0  0  0  0  0  0  0  0
   28.0875   -7.4909   63.7233 C   0  0  0  0  0  0  0  0  0  0  0  0
   29.0875  -10.7909   62.6233 N   0  0  0  0  0  0  0  0  0  0  0  0
   29.8875  -11.9909   62.6233 C   0  0  0  0  0  0  0  0  0  0  0  0
   30.9874   -8.5909   61.8233 O   0  0  0  0  0  0  0  0  0  0  0  0
   33.7874   -7.2909   61.6233 N   0  0  0  0  0  0  0  0  0  0  0  0
   31.4617  -10.5936   66.3482 H   0  0  0  0  0  0  0  0  0  0  0  0
   33.7931   -9.6629   66.4026 H   0  0  0  0  0  0  0  0  0  0  0  0
   34.4460  -10.9775   65.4836 H   0  0  0  0  0  0  0  0  0  0  0  0
   35.0588   -8.2833   63.6745 H   0  0  0  0  0  0  0  0  0  0  0  0
   30.7595  -11.5211   64.2212 H   0  0  0  0  0  0  0  0  0  0  0  0
   29.2673  -10.8462   65.4309 H   0  0  0  0  0  0  0  0  0  0  0  0
   30.7208   -8.6059   65.6896 H   0  0  0  0  0  0  0  0  0  0  0  0
   27.2765   -9.0949   62.5548 H   0  0  0  0  0  0  0  0  0  0  0  0
   27.1994   -9.2714   64.4096 H   0  0  0  0  0  0  0  0  0  0  0  0
   28.1324   -7.2663   64.7992 H   0  0  0  0  0  0  0  0  0  0  0  0
   29.0526   -7.2447   63.2567 H   0  0  0  0  0  0  0  0  0  0  0  0
   27.2912   -6.8924   63.2567 H   0  0  0  0  0  0  0  0  0  0  0  0
   30.0908  -12.2960   63.6604 H   0  0  0  0  0  0  0  0  0  0  0  0
   29.3435  -12.7942   62.1048 H   0  0  0  0  0  0  0  0  0  0  0  0
   30.8381  -11.7978   62.1048 H   0  0  0  0  0  0  0  0  0  0  0  0
   30.1524   -9.0943   61.9950 H   0  0  0  0  0  0  0  0  0  0  0  0
   33.2005   -6.9625   60.8432 H   0  0  0  0  0  0  0  0  0  0  0  0
   34.7510   -6.9415   61.7255 H   0  0  0  0  0  0  0  0  0  0  0  0
  1  2  2  0
  2  3  1  0
  4  5  1  0
  5  6  1  0
  6  7  1  0
  7  8  1  0
  8  9  2  0
  9 10  1  0
 10 11  1  0
 11  4  1  0
 10  6  2  0
  2  4  1  0
 12 13  1  0
 12 14  1  0
 14 15  1  0
 15 16  1  0
 14 17  2  0
 17 18  1  0
 11 12  1  0
  9 19  1  0
  8 20  1  0
  4 21  1  1
  5 22  1  0
  5 23  1  0
  7 24  1  0
 11 25  1  6
 12 26  1  1
 13 27  1  0
 15 28  1  0
 15 29  1  0
 16 30  1  0
 16 31  1  0
 16 32  1  0
 18 33  1  0
 18 34  1  0
 18 35  1  0
 19 36  1  0
 20 37  1  0
 20 38  1  0
M  CHG  1   3  -1
M  END
$$$$
1b9v_Lingo3DMolv2_1290570
     RDKit          3D

 42 42  0  0  0  0  0  0  0  0999 V2000
   32.4875  -13.0909   66.5233 O   0  0  0  0  0  0  0  0  0  0  0  0
   33.0874  -11.9909   66.4233 C   0  0  0  0  0  0  0  0  0  0  0  0
   33.9875  -11.5909   67.1233 O   0  0  0  0  0  1  0  0  0  0  0  0
   32.4875  -10.9909   65.3233 C   0  0  0  0  0  0  0  0  0  0  0  0
   31.3875  -11.2909   64.6233 C   0  0  0  0  0  0  0  0  0  0  0  0
   30.6874  -10.3909   63.6233 C   0  0  2  0  0  0  0  0  0  0  0  0
   31.5875   -9.0909   63.2233 C   0  0  2  0  0  0  0  0  0  0  0  0
   32.5874   -8.6909   64.4233 C   0  0  1  0  0  0  0  0  0  0  0  0
   33.3875   -9.8909   64.9233 N   0  0  0  0  0  0  0  0  0  0  0  0
   33.6874   -7.6909   63.9233 N   0  0  0  0  0  4  0  0  0  0  0  0
   30.7874   -8.0909   62.6233 N   0  0  0  0  0  0  0  0  0  0  0  0
   31.0875   -6.6909   62.6233 C   0  0  0  0  0  0  0  0  0  0  0  0
   31.8875   -6.1909   61.4233 C   0  0  0  0  0  0  0  0  0  0  0  0
   30.6874   -5.9909   63.4233 O   0  0  0  0  0  0  0  0  0  0  0  0
   29.1874  -10.1909   64.0233 C   0  0  2  0  0  0  0  0  0  0  0  0
   28.9874   -9.4909   65.3233 N   0  0  0  0  0  0  0  0  0  0  0  0
   29.2874   -8.1909   65.6233 C   0  0  0  0  0  0  0  0  0  0  0  0
   28.9874   -7.7909   67.1233 C   0  0  0  0  0  0  0  0  0  0  0  0
   29.7874   -7.3909   64.8233 O   0  0  0  0  0  0  0  0  0  0  0  0
   28.3875  -11.4909   64.1233 C   0  0  0  0  0  0  0  0  0  0  0  0
   28.3875  -12.1909   63.0233 O   0  0  0  0  0  0  0  0  0  0  0  0
   28.7874  -12.1909   65.3233 O   0  0  0  0  0  0  0  0  0  0  0  0
   30.9486  -12.2859   64.7890 H   0  0  0  0  0  0  0  0  0  0  0  0
   30.6066  -10.8775   62.6401 H   0  0  0  0  0  0  0  0  0  0  0  0
   32.2986   -9.3170   62.4151 H   0  0  0  0  0  0  0  0  0  0  0  0
   31.9422   -8.2681   65.2074 H   0  0  0  0  0  0  0  0  0  0  0  0
   34.4155   -9.9282   64.9747 H   0  0  0  0  0  0  0  0  0  0  0  0
   34.1573   -7.2638   64.7343 H   0  0  0  0  0  0  0  0  0  0  0  0
   34.3794   -8.1984   63.3537 H   0  0  0  0  0  0  0  0  0  0  0  0
   33.2480   -6.9539   63.3537 H   0  0  0  0  0  0  0  0  0  0  0  0
   29.9235   -8.3926   62.1505 H   0  0  0  0  0  0  0  0  0  0  0  0
   32.7710   -5.6387   61.7760 H   0  0  0  0  0  0  0  0  0  0  0  0
   32.2099   -7.0485   60.8146 H   0  0  0  0  0  0  0  0  0  0  0  0
   31.2579   -5.5253   60.8146 H   0  0  0  0  0  0  0  0  0  0  0  0
   28.8204   -9.5719   63.1915 H   0  0  0  0  0  0  0  0  0  0  0  0
   28.5758  -10.0507   66.0837 H   0  0  0  0  0  0  0  0  0  0  0  0
   29.5082   -8.4853   67.7991 H   0  0  0  0  0  0  0  0  0  0  0  0
   29.3412   -6.7657   67.3072 H   0  0  0  0  0  0  0  0  0  0  0  0
   27.9042   -7.8435   67.3072 H   0  0  0  0  0  0  0  0  0  0  0  0
   27.3168  -11.2617   64.2291 H   0  0  0  0  0  0  0  0  0  0  0  0
   29.3208  -12.3681   62.7449 H   0  0  0  0  0  0  0  0  0  0  0  0
   28.4944  -11.6780   66.1178 H   0  0  0  0  0  0  0  0  0  0  0  0
  1  2  2  0
  2  3  1  0
  4  5  2  0
  5  6  1  0
  6  7  1  0
  7  8  1  0
  8  9  1  0
  9  4  1  0
  2  4  1  0
  8 10  1  0
 11 12  1  0
 12 13  1  0
 12 14  2  0
  7 11  1  0
 15 16  1  0
 16 17  1  0
 17 18  1  0
 17 19  2  0
 15 20  1  0
 20 21  1  0
 20 22  1  0
  6 15  1  0
  5 23  1  0
  6 24  1  6
  7 25  1  6
  8 26  1  1
  9 27  1  0
 10 28  1  0
 10 29  1  0
 10 30  1  0
 11 31  1  0
 13 32  1  0
 13 33  1  0
 13 34  1  0
 15 35  1  6
 16 36  1  0
 18 37  1  0
 18 38  1  0
 18 39  1  0
 20 40  1  0
 21 41  1  0
 22 42  1  0
M  CHG  2   3  -1  10   1
M  END
$$$$
1b9v_Lingo3DMolv2_302919
     RDKit          3D

 39 40  0  0  0  0  0  0  0  0999 V2000
   31.4874  -11.3909   65.8233 O   0  0  0  0  0  0  0  0  0  0  0  0
   32.6874  -11.8909   66.5233 C   0  0  0  0  0  0  0  0  0  0  0  0
   32.2874  -12.9909   67.5233 C   0  0  0  0  0  0  0  0  0  0  0  0
   33.7874  -11.4909   66.3233 O   0  0  0  0  0  0  0  0  0  0  0  0
   31.5875  -10.4909   64.7233 C   0  0  2  0  0  0  0  0  0  0  0  0
   32.3875   -9.1909   65.0233 C   0  0  2  0  0  0  0  0  0  0  0  0
   32.3875   -8.2909   63.8233 C   0  0  1  0  0  0  0  0  0  0  0  0
   33.2874   -7.0909   63.8233 C   0  0  0  0  0  0  0  0  0  0  0  0
   33.0874   -6.3909   62.4233 N   0  0  0  0  0  4  0  0  0  0  0  0
   31.8875   -7.0909   61.8233 C   0  0  0  0  0  0  0  0  0  0  0  0
   31.6874   -8.2909   62.5233 C   0  0  2  0  0  0  0  0  0  0  0  0
   30.3875   -8.7909   62.4233 O   0  0  0  0  0  0  0  0  0  0  0  0
   30.0875   -9.9909   63.2233 C   0  0  2  0  0  0  0  0  0  0  0  0
   28.6874   -9.6909   63.8233 C   0  0  2  0  0  0  0  0  0  0  0  0
   27.5875   -9.4909   62.8233 N   0  0  0  0  0  0  0  0  0  0  0  0
   28.5875   -8.4909   64.8233 C   0  0  0  0  0  0  0  0  0  0  0  0
   27.3875   -8.0909   65.1233 N   0  0  0  0  0  0  0  0  0  0  0  0
   29.4874   -8.0909   65.3233 O   0  0  0  0  0  0  0  0  0  0  0  0
   29.9874  -11.0909   62.4233 O   0  0  0  0  0  0  0  0  0  0  0  0
   33.5874   -9.4909   65.4233 F   0  0  0  0  0  0  0  0  0  0  0  0
   32.4224  -12.6198   68.5500 H   0  0  0  0  0  0  0  0  0  0  0  0
   31.2330  -13.2626   67.3673 H   0  0  0  0  0  0  0  0  0  0  0  0
   32.9211  -13.8764   67.3673 H   0  0  0  0  0  0  0  0  0  0  0  0
   32.0593  -11.3285   64.1887 H   0  0  0  0  0  0  0  0  0  0  0  0
   31.9009   -8.6358   65.8388 H   0  0  0  0  0  0  0  0  0  0  0  0
   31.5850   -7.6891   64.2747 H   0  0  0  0  0  0  0  0  0  0  0  0
   33.0080   -6.4046   64.6363 H   0  0  0  0  0  0  0  0  0  0  0  0
   34.3376   -7.3774   63.9820 H   0  0  0  0  0  0  0  0  0  0  0  0
   32.9015   -5.3848   62.5417 H   0  0  0  0  0  0  0  0  0  0  0  0
   33.9233   -6.4607   61.8255 H   0  0  0  0  0  0  0  0  0  0  0  0
   30.9973   -6.4516   61.9174 H   0  0  0  0  0  0  0  0  0  0  0  0
   32.0601   -7.2963   60.7566 H   0  0  0  0  0  0  0  0  0  0  0  0
   32.2076   -9.1132   62.0102 H   0  0  0  0  0  0  0  0  0  0  0  0
   28.5481  -10.6323   64.3751 H   0  0  0  0  0  0  0  0  0  0  0  0
   26.6987   -9.3294   63.3183 H   0  0  0  0  0  0  0  0  0  0  0  0
   27.8046   -8.6756   62.2325 H   0  0  0  0  0  0  0  0  0  0  0  0
   27.2546   -7.3053   65.7761 H   0  0  0  0  0  0  0  0  0  0  0  0
   26.5695   -8.5596   64.7083 H   0  0  0  0  0  0  0  0  0  0  0  0
   29.9137  -11.9024   62.9857 H   0  0  0  0  0  0  0  0  0  0  0  0
  1  2  1  0
  2  3  1  0
  2  4  2  0
  5  6  1  0
  6  7  1  0
  7  8  1  0
  8  9  1  0
  9 10  1  0
 11 10  1  0
 11 12  1  0
 12 13  1  0
 13  5  1  0
 11  7  1  0
  1  5  1  0
 14 15  1  0
 14 16  1  0
 16 17  1  0
 16 18  2  0
 13 14  1  0
 13 19  1  6
  6 20  1  0
  3 21  1  0
  3 22  1  0
  3 23  1  0
  5 24  1  6
  6 25  1  1
  7 26  1  1
  8 27  1  0
  8 28  1  0
  9 29  1  0
  9 30  1  0
 10 31  1  0
 10 32  1  0
 11 33  1  6
 14 34  1  1
 15 35  1  0
 15 36  1  0
 17 37  1  0
 17 38  1  0
 19 39  1  0
M  CHG  1   9   1
M  END
$$$$
1b9v_Lingo3DMolv2_343284
     RDKit          3D

 47 48  0  0  0  0  0  0  0  0999 V2000
   32.8875  -12.7909   67.0233 O   0  0  0  0  0  0  0  0  0  0  0  0
   32.0874  -12.1909   66.2233 C   0  0  0  0  0  0  0  0  0  0  0  0
   30.7874  -12.4909   66.2233 N   0  0  0  0  0  0  0  0  0  0  0  0
   29.8875  -11.7909   65.4233 N   0  0  0  0  0  0  0  0  0  0  0  0
   29.1874  -10.6909   66.2233 C   0  0  0  0  0  0  0  0  0  0  0  0
   28.1874  -11.1909   67.1233 C   0  0  0  0  0  0  0  0  0  0  0  0
   27.3875  -10.0909   67.9233 C   0  0  0  0  0  0  0  0  0  0  0  0
   28.1874   -9.2909   68.8233 C   0  0  0  0  0  0  0  0  0  0  0  0
   28.6874  -12.4909   65.1233 C   0  0  0  0  0  0  0  0  0  0  0  0
   27.9874  -11.9909   63.8233 C   0  0  0  0  0  0  0  0  0  0  0  0
   28.7874  -12.2909   62.6233 O   0  0  0  0  0  0  0  0  0  0  0  0
   32.5874  -10.9909   65.4233 C   0  0  0  0  0  0  0  0  0  0  0  0
   31.8875  -10.3909   64.5233 N   0  0  0  0  0  0  0  0  0  0  0  0
   32.6874   -9.2909   64.0233 C   0  0  2  0  0  0  0  0  0  0  0  0
   31.9874   -8.0909   64.3233 C   0  0  0  0  0  0  0  0  0  0  0  0
   31.9874   -7.2909   63.0233 N   0  0  0  0  0  0  0  0  0  0  0  0
   31.9874   -8.2909   61.7233 S   0  0  0  0  0  0  0  0  0  0  0  0
   30.6874   -8.7909   61.4233 O   0  0  0  0  0  0  0  0  0  0  0  0
   32.5874   -7.6909   60.5233 O   0  0  0  0  0  0  0  0  0  0  0  0
   32.9875   -9.3909   62.5233 N   0  0  0  0  0  2  0  0  0  0  0  0
   33.9875   -9.3909   64.8233 C   0  0  0  0  0  0  0  0  0  0  0  0
   34.9875   -8.6909   64.7233 N   0  0  0  0  0  4  0  0  0  0  0  0
   33.7874  -10.4909   65.6233 N   0  0  0  0  0  0  0  0  0  0  0  0
   31.2874   -5.8909   62.9233 C   0  0  0  0  0  0  0  0  0  0  0  0
   30.4436  -13.2530   66.8250 H   0  0  0  0  0  0  0  0  0  0  0  0
   29.9450  -10.1497   66.8092 H   0  0  0  0  0  0  0  0  0  0  0  0
   28.6771  -10.0376   65.5004 H   0  0  0  0  0  0  0  0  0  0  0  0
   27.4647  -11.7768   66.5364 H   0  0  0  0  0  0  0  0  0  0  0  0
   28.7266  -11.7828   67.8776 H   0  0  0  0  0  0  0  0  0  0  0  0
   26.9137   -9.4159   67.1954 H   0  0  0  0  0  0  0  0  0  0  0  0
   26.6636  -10.6312   68.5512 H   0  0  0  0  0  0  0  0  0  0  0  0
   27.9338   -9.5446   69.8632 H   0  0  0  0  0  0  0  0  0  0  0  0
   29.2537   -9.4949   68.6458 H   0  0  0  0  0  0  0  0  0  0  0  0
   27.9835   -8.2247   68.6458 H   0  0  0  0  0  0  0  0  0  0  0  0
   28.9271  -13.5577   65.0021 H   0  0  0  0  0  0  0  0  0  0  0  0
   27.9910  -12.3132   65.9560 H   0  0  0  0  0  0  0  0  0  0  0  0
   27.0092  -12.4857   63.7324 H   0  0  0  0  0  0  0  0  0  0  0  0
   27.8722  -10.8993   63.8943 H   0  0  0  0  0  0  0  0  0  0  0  0
   29.6786  -12.6251   62.8959 H   0  0  0  0  0  0  0  0  0  0  0  0
   30.9575   -8.3139   64.6389 H   0  0  0  0  0  0  0  0  0  0  0  0
   32.4588   -7.5355   65.1475 H   0  0  0  0  0  0  0  0  0  0  0  0
   35.8019   -8.8669   65.3288 H   0  0  0  0  0  0  0  0  0  0  0  0
   35.0140   -7.9263   64.0337 H   0  0  0  0  0  0  0  0  0  0  0  0
   34.4794  -10.8699   66.2856 H   0  0  0  0  0  0  0  0  0  0  0  0
   31.0942   -5.5045   63.9349 H   0  0  0  0  0  0  0  0  0  0  0  0
   31.9419   -5.1916   62.3825 H   0  0  0  0  0  0  0  0  0  0  0  0
   30.3353   -5.9949   62.3825 H   0  0  0  0  0  0  0  0  0  0  0  0
  1  2  2  0
  2  3  1  0
  3  4  1  0
  4  5  1  0
  5  6  1  0
  6  7  1  0
  7  8  1  0
  4  9  1  0
  9 10  1  0
 10 11  1  0
 12 13  2  0
 13 14  1  0
 14 15  1  0
 15 16  1  0
 16 17  1  0
 17 18  2  0
 17 19  2  0
 17 20  1  0
 14 21  1  0
 21 22  2  0
 21 23  1  0
 23 12  1  0
 14 20  1  6
  2 12  1  0
 16 24  1  0
  3 25  1  0
  5 26  1  0
  5 27  1  0
  6 28  1  0
  6 29  1  0
  7 30  1  0
  7 31  1  0
  8 32  1  0
  8 33  1  0
  8 34  1  0
  9 35  1  0
  9 36  1  0
 10 37  1  0
 10 38  1  0
 11 39  1  0
 15 40  1  0
 15 41  1  0
 22 42  1  0
 22 43  1  0
 23 44  1  0
 24 45  1  0
 24 46  1  0
 24 47  1  0
M  CHG  2  20  -1  22   1
M  END
$$$$
1b9v_Lingo3DMolv2_347456
     RDKit          3D

 38 38  0  0  0  0  0  0  0  0999 V2000
   31.2874   -6.5909   65.6233 O   0  0  0  0  0  0  0  0  0  0  0  0
   31.4874   -7.4909   64.5233 N   0  0  0  0  0  0  0  0  0  0  0  0
   31.0875   -6.8909   63.2233 C   0  0  2  0  0  0  0  0  0  0  0  0
   31.3875   -7.7909   62.1233 C   0  0  2  0  0  0  0  0  0  0  0  0
   32.9875   -8.2909   62.0233 C   0  0  0  0  0  0  0  0  0  0  0  0
   33.3875   -8.6909   63.4233 C   0  0  2  0  0  0  0  0  0  0  0  0
   32.1874   -8.9909   64.4233 C   0  0  2  0  0  0  0  0  0  0  0  0
   31.3875  -10.1909   64.1233 C   0  0  0  0  0  0  0  0  0  0  0  0
   30.3875  -10.3909   65.1233 O   0  0  0  0  0  0  0  0  0  0  0  0
   29.5875  -11.4909   65.0233 C   0  0  2  0  0  0  0  0  0  0  0  0
   28.7874  -11.3909   63.9233 O   0  0  0  0  0  0  0  0  0  0  0  0
   27.8875  -12.4909   63.6233 C   0  0  0  0  0  0  0  0  0  0  0  0
   28.5875  -11.5909   66.3233 C   0  0  0  0  0  0  0  0  0  0  0  0
   29.3875  -11.6909   67.5233 O   0  0  0  0  0  0  0  0  0  0  0  0
   34.1874   -7.5909   64.1233 N   0  0  0  0  0  4  0  0  0  0  0  0
   31.1874   -7.1909   60.8233 O   0  0  0  0  0  0  0  0  0  0  0  0
   31.6874   -5.5909   63.0233 O   0  0  0  0  0  0  0  0  0  0  0  0
   31.3966   -7.0823   66.4758 H   0  0  0  0  0  0  0  0  0  0  0  0
   29.9983   -6.7393   63.2492 H   0  0  0  0  0  0  0  0  0  0  0  0
   30.7025   -8.6212   62.3504 H   0  0  0  0  0  0  0  0  0  0  0  0
   33.0778   -9.1485   61.3404 H   0  0  0  0  0  0  0  0  0  0  0  0
   33.6351   -7.4925   61.6321 H   0  0  0  0  0  0  0  0  0  0  0  0
   33.9616   -9.6110   63.2393 H   0  0  0  0  0  0  0  0  0  0  0  0
   32.4610   -9.3525   65.4255 H   0  0  0  0  0  0  0  0  0  0  0  0
   32.0496  -11.0688   64.0935 H   0  0  0  0  0  0  0  0  0  0  0  0
   30.8935  -10.0539   63.1501 H   0  0  0  0  0  0  0  0  0  0  0  0
   30.2425  -12.3725   64.9610 H   0  0  0  0  0  0  0  0  0  0  0  0
   27.5246  -12.9344   64.5623 H   0  0  0  0  0  0  0  0  0  0  0  0
   27.0330  -12.1170   63.0402 H   0  0  0  0  0  0  0  0  0  0  0  0
   28.4232  -13.2545   63.0402 H   0  0  0  0  0  0  0  0  0  0  0  0
   27.9567  -10.6912   66.3740 H   0  0  0  0  0  0  0  0  0  0  0  0
   27.9430  -12.4775   66.2303 H   0  0  0  0  0  0  0  0  0  0  0  0
   28.8013  -11.6177   68.3178 H   0  0  0  0  0  0  0  0  0  0  0  0
   34.1056   -7.7034   65.1439 H   0  0  0  0  0  0  0  0  0  0  0  0
   35.1778   -7.6590   63.8487 H   0  0  0  0  0  0  0  0  0  0  0  0
   33.8176   -6.6697   63.8487 H   0  0  0  0  0  0  0  0  0  0  0  0
   30.8764   -6.2577   60.9349 H   0  0  0  0  0  0  0  0  0  0  0  0
   31.8785   -5.1770   63.9021 H   0  0  0  0  0  0  0  0  0  0  0  0
  2  3  1  0
  3  4  1  0
  4  5  1  0
  5  6  1  0
  6  7  1  0
  7  2  1  0
  1  2  1  0
  8  9  1  0
  9 10  1  0
 10 11  1  0
 11 12  1  0
 10 13  1  0
 13 14  1  0
  7  8  1  0
  6 15  1  0
  4 16  1  0
  3 17  1  0
  1 18  1  0
  3 19  1  1
  4 20  1  1
  5 21  1  0
  5 22  1  0
  6 23  1  6
  7 24  1  1
  8 25  1  0
  8 26  1  0
 10 27  1  6
 12 28  1  0
 12 29  1  0
 12 30  1  0
 13 31  1  0
 13 32  1  0
 14 33  1  0
 15 34  1  0
 15 35  1  0
 15 36  1  0
 16 37  1  0
 17 38  1  0
M  CHG  1  15   1
M  END
$$$$
1b9v_Lingo3DMolv2_706910
     RDKit          3D

 54 54  0  0  0  0  0  0  0  0999 V2000
   32.6874  -12.8909   66.5233 O   0  0  0  0  0  0  0  0  0  0  0  0
   33.3875  -11.8909   66.8233 C   0  0  0  0  0  0  0  0  0  0  0  0
   33.8875  -11.6909   67.9233 O   0  0  0  0  0  1  0  0  0  0  0  0
   33.5874  -10.8909   65.7233 C   0  0  0  0  0  0  0  0  0  0  0  0
   32.7874  -10.8909   64.7233 C   0  0  0  0  0  0  0  0  0  0  0  0
   32.8875   -9.7909   63.5233 C   0  0  2  0  0  0  0  0  0  0  0  0
   33.7874   -8.6909   63.9233 C   0  0  1  0  0  0  0  0  0  0  0  0
   34.9875   -9.0909   64.8233 N   0  0  0  0  0  4  0  0  0  0  0  0
   34.5874   -9.8909   65.9233 C   0  0  0  0  0  0  0  0  0  0  0  0
   34.3875   -7.8909   62.7233 C   0  0  0  0  0  0  0  0  0  0  0  0
   33.3875   -7.1909   61.9233 N   0  0  0  0  0  4  0  0  0  0  0  0
   32.4875   -6.1909   62.6233 C   0  0  0  0  0  0  0  0  0  0  0  0
   31.4874   -9.3909   63.1233 C   0  0  2  0  0  0  0  0  0  0  0  0
   31.3875   -8.1909   61.9233 C   0  0  0  0  0  0  0  0  0  0  0  0
   31.8875   -8.5909   60.6233 C   0  0  0  0  0  0  0  0  0  0  0  0
   30.5875   -9.0909   64.2233 O   0  0  0  0  0  0  0  0  0  0  0  0
   29.2874   -8.5909   64.0233 C   0  0  1  0  0  0  0  0  0  0  0  0
   28.4874   -9.5909   63.4233 O   0  0  0  0  0  0  0  0  0  0  0  0
   28.2874  -10.7909   64.1233 C   0  0  0  0  0  0  0  0  0  0  0  0
   28.3875  -10.8909   65.3233 O   0  0  0  0  0  0  0  0  0  0  0  0
   27.9874  -11.7909   63.2233 N   0  0  0  0  0  0  0  0  0  0  0  0
   27.8875  -13.1909   63.6233 C   0  0  0  0  0  0  0  0  0  0  0  0
   28.5875   -8.4909   65.3233 C   0  0  0  0  0  0  0  0  0  0  0  0
   27.1874   -7.8909   65.3233 C   0  0  0  0  0  0  0  0  0  0  0  0
   32.0039  -11.6613   64.6718 H   0  0  0  0  0  0  0  0  0  0  0  0
   33.3516  -10.2019   62.6147 H   0  0  0  0  0  0  0  0  0  0  0  0
   33.0927   -8.0685   64.5063 H   0  0  0  0  0  0  0  0  0  0  0  0
   35.6651   -9.6207   64.2567 H   0  0  0  0  0  0  0  0  0  0  0  0
   35.4056   -8.2266   65.1960 H   0  0  0  0  0  0  0  0  0  0  0  0
   35.4874  -10.4041   66.2932 H   0  0  0  0  0  0  0  0  0  0  0  0
   34.1126   -9.1760   66.6113 H   0  0  0  0  0  0  0  0  0  0  0  0
   34.9231   -8.5954   62.0700 H   0  0  0  0  0  0  0  0  0  0  0  0
   35.0511   -7.1241   63.1493 H   0  0  0  0  0  0  0  0  0  0  0  0
   33.8897   -6.6835   61.1809 H   0  0  0  0  0  0  0  0  0  0  0  0
   32.7481   -7.9329   61.6045 H   0  0  0  0  0  0  0  0  0  0  0  0
   32.5901   -6.3050   63.7126 H   0  0  0  0  0  0  0  0  0  0  0  0
   32.7773   -5.1704   62.3326 H   0  0  0  0  0  0  0  0  0  0  0  0
   31.4422   -6.3721   62.3326 H   0  0  0  0  0  0  0  0  0  0  0  0
   31.1285  -10.3252   62.6669 H   0  0  0  0  0  0  0  0  0  0  0  0
   30.3310   -7.9059   61.8111 H   0  0  0  0  0  0  0  0  0  0  0  0
   32.0264   -7.3612   62.2599 H   0  0  0  0  0  0  0  0  0  0  0  0
   32.7404   -9.2733   60.7526 H   0  0  0  0  0  0  0  0  0  0  0  0
   31.0897   -9.1029   60.0653 H   0  0  0  0  0  0  0  0  0  0  0  0
   32.2118   -7.7002   60.0653 H   0  0  0  0  0  0  0  0  0  0  0  0
   29.3958   -7.6520   63.4605 H   0  0  0  0  0  0  0  0  0  0  0  0
   27.8287  -11.5421   62.2365 H   0  0  0  0  0  0  0  0  0  0  0  0
   27.8826  -13.2592   64.7212 H   0  0  0  0  0  0  0  0  0  0  0  0
   26.9563  -13.6204   63.2251 H   0  0  0  0  0  0  0  0  0  0  0  0
   28.7481  -13.7484   63.2251 H   0  0  0  0  0  0  0  0  0  0  0  0
   28.5101   -9.5080   65.7351 H   0  0  0  0  0  0  0  0  0  0  0  0
   29.1934   -7.7889   65.9149 H   0  0  0  0  0  0  0  0  0  0  0  0
   26.8504   -7.7465   66.3604 H   0  0  0  0  0  0  0  0  0  0  0  0
   27.2042   -6.9210   64.8048 H   0  0  0  0  0  0  0  0  0  0  0  0
   26.4966   -8.5720   64.8048 H   0  0  0  0  0  0  0  0  0  0  0  0
  1  2  2  0
  2  3  1  0
  4  5  2  0
  5  6  1  0
  6  7  1  0
  7  8  1  0
  8  9  1  0
  9  4  1  0
  2  4  1  0
 10 11  1  0
 11 12  1  0
  7 10  1  0
 13 14  1  0
 14 15  1  0
 13 16  1  0
 16 17  1  0
 17 18  1  0
 18 19  1  0
 19 20  2  0
 19 21  1  0
 21 22  1  0
 17 23  1  0
 23 24  1  0
  6 13  1  0
  5 25  1  0
  6 26  1  6
  7 27  1  1
  8 28  1  0
  8 29  1  0
  9 30  1  0
  9 31  1  0
 10 32  1  0
 10 33  1  0
 11 34  1  0
 11 35  1  0
 12 36  1  0
 12 37  1  0
 12 38  1  0
 13 39  1  6
 14 40  1  0
 14 41  1  0
 15 42  1  0
 15 43  1  0
 15 44  1  0
 17 45  1  6
 21 46  1  0
 22 47  1  0
 22 48  1  0
 22 49  1  0
 23 50  1  0
 23 51  1  0
 24 52  1  0
 24 53  1  0
 24 54  1  0
M  CHG  3   3  -1   8   1  11   1
M  END
$$$$
1b9v_Lingo3DMolv2_826263
     RDKit          3D

 39 40  0  0  0  0  0  0  0  0999 V2000
   30.9874   -6.7909   65.2233 O   0  0  0  0  0  0  0  0  0  0  0  0
   31.5875   -7.0909   64.1233 C   0  0  0  0  0  0  0  0  0  0  0  0
   32.0874   -6.1909   63.2233 N   0  0  0  0  0  2  0  0  0  0  0  0
   32.5874   -6.8909   62.3233 C   0  0  0  0  0  0  0  0  0  0  0  0
   32.4875   -8.1909   62.5233 C   0  0  0  0  0  0  0  0  0  0  0  0
   31.7874   -8.3909   63.6233 N   0  0  0  0  0  0  0  0  0  0  0  0
   31.2874   -9.5909   64.4233 C   0  0  1  0  0  0  0  0  0  0  0  0
   30.4874  -10.2909   63.6233 O   0  0  0  0  0  0  0  0  0  0  0  0
   29.7874  -11.4909   64.3233 C   0  0  2  0  0  0  0  0  0  0  0  0
   30.7874  -12.2909   65.0233 C   0  0  0  0  0  0  0  0  0  0  0  0
   31.7874  -11.4909   65.9233 C   0  0  2  0  0  0  0  0  0  0  0  0
   32.3875  -10.2909   65.1233 C   0  0  2  0  0  0  0  0  0  0  0  0
   33.1874   -9.4909   65.8233 O   0  0  0  0  0  0  0  0  0  0  0  0
   32.8875  -12.3909   66.4233 N   0  0  0  0  0  4  0  0  0  0  0  0
   28.8875  -12.1909   63.3233 C   0  0  0  0  0  0  0  0  0  0  0  0
   27.5875  -11.4909   63.2233 O   0  0  0  0  0  0  0  0  0  0  0  0
   32.9875   -9.3909   61.6233 C   0  0  0  0  0  0  0  0  0  0  0  0
   32.2874   -9.2909   60.3233 N   0  0  0  0  0  4  0  0  0  0  0  0
   33.1874   -6.2909   61.3233 N   0  0  0  0  0  0  0  0  0  0  0  0
   30.6663   -9.3092   65.2863 H   0  0  0  0  0  0  0  0  0  0  0  0
   29.0979  -11.1876   65.1249 H   0  0  0  0  0  0  0  0  0  0  0  0
   30.2567  -13.0101   65.6645 H   0  0  0  0  0  0  0  0  0  0  0  0
   31.3993  -12.7600   64.2387 H   0  0  0  0  0  0  0  0  0  0  0  0
   31.2400  -11.0991   66.7932 H   0  0  0  0  0  0  0  0  0  0  0  0
   33.0841  -10.6963   64.3748 H   0  0  0  0  0  0  0  0  0  0  0  0
   33.0386   -9.6398   66.7907 H   0  0  0  0  0  0  0  0  0  0  0  0
   32.8887  -12.3920   67.4533 H   0  0  0  0  0  0  0  0  0  0  0  0
   32.7303  -13.3490   66.0792 H   0  0  0  0  0  0  0  0  0  0  0  0
   33.7954  -12.0472   66.0792 H   0  0  0  0  0  0  0  0  0  0  0  0
   28.7173  -13.2269   63.6516 H   0  0  0  0  0  0  0  0  0  0  0  0
   29.3746  -12.1829   62.3371 H   0  0  0  0  0  0  0  0  0  0  0  0
   27.2420  -11.3049   64.1323 H   0  0  0  0  0  0  0  0  0  0  0  0
   32.7471  -10.3492   62.1070 H   0  0  0  0  0  0  0  0  0  0  0  0
   34.0773   -9.3427   61.4822 H   0  0  0  0  0  0  0  0  0  0  0  0
   31.2806   -9.1471   60.4857 H   0  0  0  0  0  0  0  0  0  0  0  0
   32.6662   -8.4955   59.7897 H   0  0  0  0  0  0  0  0  0  0  0  0
   32.4284  -10.1606   59.7897 H   0  0  0  0  0  0  0  0  0  0  0  0
   33.6089   -6.8481   60.5665 H   0  0  0  0  0  0  0  0  0  0  0  0
   33.2372   -5.2625   61.2948 H   0  0  0  0  0  0  0  0  0  0  0  0
  1  2  2  0
  2  3  1  0
  3  4  1  0
  4  5  2  0
  5  6  1  0
  6  2  1  0
  7  8  1  0
  8  9  1  0
  9 10  1  0
 10 11  1  0
 11 12  1  0
 12  7  1  0
  6  7  1  0
 12 13  1  0
 11 14  1  0
 15 16  1  0
  9 15  1  0
 17 18  1  0
  5 17  1  0
  4 19  1  0
  7 20  1  1
  9 21  1  1
 10 22  1  0
 10 23  1  0
 11 24  1  1
 12 25  1  6
 13 26  1  0
 14 27  1  0
 14 28  1  0
 14 29  1  0
 15 30  1  0
 15 31  1  0
 16 32  1  0
 17 33  1  0
 17 34  1  0
 18 35  1  0
 18 36  1  0
 18 37  1  0
 19 38  1  0
 19 39  1  0
M  CHG  3   3  -1  14   1  18   1
M  END
$$$$
1b9v_Lingo3DMolv2_826289
     RDKit          3D

 42 42  0  0  0  0  0  0  0  0999 V2000
   33.3875  -13.2909   66.1233 O   0  0  0  0  0  0  0  0  0  0  0  0
   32.5874  -12.3909   66.5233 C   0  0  0  0  0  0  0  0  0  0  0  0
   31.9874  -12.4909   67.7233 N   0  0  0  0  0  0  0  0  0  0  0  0
   32.3875  -11.1909   65.7233 C   0  0  0  0  0  0  0  0  0  0  0  0
   31.1874  -10.7909   65.4233 C   0  0  0  0  0  0  0  0  0  0  0  0
   30.7874   -9.5909   64.5233 C   0  0  1  0  0  0  0  0  0  0  0  0
   32.0874   -8.9909   63.7233 C   0  0  2  0  0  0  0  0  0  0  0  0
   33.2874   -8.9909   64.6233 N   0  0  0  0  0  0  0  0  0  0  0  0
   33.6874  -10.2909   65.3233 C   0  0  1  0  0  0  0  0  0  0  0  0
   34.4875   -9.9909   66.4233 O   0  0  0  0  0  1  0  0  0  0  0  0
   31.7874   -7.6909   63.0233 C   0  0  1  0  0  0  0  0  0  0  0  0
   31.3875   -6.6909   63.9233 O   0  0  0  0  0  0  0  0  0  0  0  0
   32.9875   -7.0909   62.2233 C   0  0  2  0  0  0  0  0  0  0  0  0
   33.4875   -7.9909   61.1233 C   0  0  0  0  0  0  0  0  0  0  0  0
   34.0874   -6.7909   63.0233 O   0  0  0  0  0  0  0  0  0  0  0  0
   29.5875   -9.8909   63.5233 C   0  0  1  0  0  0  0  0  0  0  0  0
   29.0875   -8.6909   62.9233 O   0  0  0  0  0  0  0  0  0  0  0  0
   28.3875   -7.8909   63.7233 C   0  0  0  0  0  0  0  0  0  0  0  0
   29.5875  -11.1909   62.9233 C   0  0  0  0  0  0  0  0  0  0  0  0
   28.7874  -12.2909   63.3233 C   0  0  0  0  0  0  0  0  0  0  0  0
   27.8875  -12.1909   64.3233 O   0  0  0  0  0  0  0  0  0  0  0  0
   31.3398  -11.7546   68.0382 H   0  0  0  0  0  0  0  0  0  0  0  0
   32.1758  -13.3039   68.3271 H   0  0  0  0  0  0  0  0  0  0  0  0
   30.3592  -11.3701   65.8577 H   0  0  0  0  0  0  0  0  0  0  0  0
   30.4067   -8.8242   65.2141 H   0  0  0  0  0  0  0  0  0  0  0  0
   32.3447   -9.6578   62.8872 H   0  0  0  0  0  0  0  0  0  0  0  0
   34.0926   -8.6946   64.0534 H   0  0  0  0  0  0  0  0  0  0  0  0
   34.2716  -10.9103   64.6268 H   0  0  0  0  0  0  0  0  0  0  0  0
   30.9840   -7.9662   62.3243 H   0  0  0  0  0  0  0  0  0  0  0  0
   31.5157   -7.0115   64.8512 H   0  0  0  0  0  0  0  0  0  0  0  0
   32.5630   -6.1708   61.7952 H   0  0  0  0  0  0  0  0  0  0  0  0
   33.9768   -8.8719   61.5643 H   0  0  0  0  0  0  0  0  0  0  0  0
   32.6402   -8.3152   60.5013 H   0  0  0  0  0  0  0  0  0  0  0  0
   34.2104   -7.4429   60.5013 H   0  0  0  0  0  0  0  0  0  0  0  0
   33.8309   -6.8609   63.9769 H   0  0  0  0  0  0  0  0  0  0  0  0
   28.6418  -10.1681   64.0121 H   0  0  0  0  0  0  0  0  0  0  0  0
   28.6052   -8.1398   64.7725 H   0  0  0  0  0  0  0  0  0  0  0  0
   28.6651   -6.8444   63.5295 H   0  0  0  0  0  0  0  0  0  0  0  0
   27.3133   -8.0272   63.5295 H   0  0  0  0  0  0  0  0  0  0  0  0
   30.2698  -11.3507   62.0754 H   0  0  0  0  0  0  0  0  0  0  0  0
   28.9039  -13.2534   62.8035 H   0  0  0  0  0  0  0  0  0  0  0  0
   27.3432  -12.9771   64.5799 H   0  0  0  0  0  0  0  0  0  0  0  0
  1  2  2  0
  2  3  1  0
  4  5  2  0
  5  6  1  0
  6  7  1  0
  7  8  1  0
  8  9  1  0
  9  4  1  0
  2  4  1  0
  9 10  1  0
 11 12  1  0
 11 13  1  0
 13 14  1  0
 13 15  1  0
  7 11  1  0
 16 17  1  0
 17 18  1  0
 16 19  1  0
 19 20  2  0
 20 21  1  0
  6 16  1  0
  3 22  1  0
  3 23  1  0
  5 24  1  0
  6 25  1  1
  7 26  1  6
  8 27  1  0
  9 28  1  6
 11 29  1  6
 12 30  1  0
 13 31  1  6
 14 32  1  0
 14 33  1  0
 14 34  1  0
 15 35  1  0
 16 36  1  1
 18 37  1  0
 18 38  1  0
 18 39  1  0
 19 40  1  0
 20 41  1  0
 21 42  1  0
M  CHG  1  10  -1
M  END
$$$$
1b9v_Lingo3DMolv2_826293
     RDKit          3D

 46 46  0  0  0  0  0  0  0  0999 V2000
   33.4875  -12.9909   66.7233 O   0  0  0  0  0  0  0  0  0  0  0  0
   32.3875  -12.4909   66.5233 C   0  0  0  0  0  0  0  0  0  0  0  0
   31.2874  -12.9909   66.9233 O   0  0  0  0  0  1  0  0  0  0  0  0
   32.3875  -11.0909   65.9233 C   0  0  1  0  0  0  0  0  0  0  0  0
   33.7874  -10.5909   65.4233 C   0  0  0  0  0  0  0  0  0  0  0  0
   33.6874   -9.2909   64.6233 C   0  0  0  0  0  0  0  0  0  0  0  0
   32.6874   -9.2909   63.4233 C   0  0  1  0  0  0  0  0  0  0  0  0
   31.2874   -9.6909   64.0233 C   0  0  2  0  0  0  0  0  0  0  0  0
   31.2874  -10.9909   64.7233 C   0  0  0  0  0  0  0  0  0  0  0  0
   30.2874   -9.6909   62.9233 N   0  0  0  0  0  0  0  0  0  0  0  0
   29.6874   -8.2909   62.5233 C   0  0  0  0  0  0  0  0  0  0  0  0
   29.1874   -7.3909   63.6233 C   0  0  0  0  0  0  0  0  0  0  0  0
   30.1874   -6.9909   64.4233 O   0  0  0  0  0  0  0  0  0  0  0  0
   28.9874  -10.2909   63.2233 C   0  0  0  0  0  0  0  0  0  0  0  0
   28.9874  -11.7909   63.3233 C   0  0  0  0  0  0  0  0  0  0  0  0
   27.6874  -12.2909   63.7233 O   0  0  0  0  0  0  0  0  0  0  0  0
   32.6874   -8.0909   62.7233 N   0  0  0  0  0  0  0  0  0  0  0  0
   32.7874   -8.1909   61.3233 C   0  0  0  0  0  0  0  0  0  0  0  0
   32.5874   -6.7909   63.3233 C   0  0  0  0  0  0  0  0  0  0  0  0
   32.1874   -5.4909   62.5233 C   0  0  0  0  0  0  0  0  0  0  0  0
   32.6874   -6.5909   64.5233 O   0  0  0  0  0  0  0  0  0  0  0  0
   32.0874  -10.2909   67.0233 O   0  0  0  0  0  1  0  0  0  0  0  0
   34.4346  -10.4203   66.2963 H   0  0  0  0  0  0  0  0  0  0  0  0
   34.2035  -11.3634   64.7598 H   0  0  0  0  0  0  0  0  0  0  0  0
   33.3792   -8.4941   65.3162 H   0  0  0  0  0  0  0  0  0  0  0  0
   34.6818   -9.1451   64.1760 H   0  0  0  0  0  0  0  0  0  0  0  0
   32.9843  -10.0184   62.6534 H   0  0  0  0  0  0  0  0  0  0  0  0
   31.0305   -8.9468   64.7916 H   0  0  0  0  0  0  0  0  0  0  0  0
   30.2883  -11.1532   65.1540 H   0  0  0  0  0  0  0  0  0  0  0  0
   31.5538  -11.7561   63.9793 H   0  0  0  0  0  0  0  0  0  0  0  0
   30.4729   -7.7414   61.9838 H   0  0  0  0  0  0  0  0  0  0  0  0
   28.7871   -8.5362   61.9410 H   0  0  0  0  0  0  0  0  0  0  0  0
   28.7136   -6.5060   63.1736 H   0  0  0  0  0  0  0  0  0  0  0  0
   28.4646   -7.9560   64.2302 H   0  0  0  0  0  0  0  0  0  0  0  0
   29.9167   -7.0993   65.3694 H   0  0  0  0  0  0  0  0  0  0  0  0
   28.6379   -9.8850   64.1841 H   0  0  0  0  0  0  0  0  0  0  0  0
   28.3305  -10.0394   62.3777 H   0  0  0  0  0  0  0  0  0  0  0  0
   29.2487  -12.2156   62.3428 H   0  0  0  0  0  0  0  0  0  0  0  0
   29.7237  -12.0886   64.0845 H   0  0  0  0  0  0  0  0  0  0  0  0
   27.6319  -12.3123   64.7115 H   0  0  0  0  0  0  0  0  0  0  0  0
   33.5431   -8.9466   61.0628 H   0  0  0  0  0  0  0  0  0  0  0  0
   31.8136   -8.4873   60.9064 H   0  0  0  0  0  0  0  0  0  0  0  0
   33.0838   -7.2171   60.9064 H   0  0  0  0  0  0  0  0  0  0  0  0
   31.9399   -4.6863   63.2314 H   0  0  0  0  0  0  0  0  0  0  0  0
   33.0302   -5.1760   61.8905 H   0  0  0  0  0  0  0  0  0  0  0  0
   31.3134   -5.7043   61.8905 H   0  0  0  0  0  0  0  0  0  0  0  0
  1  2  2  0
  2  3  1  0
  4  5  1  0
  5  6  1  0
  6  7  1  0
  7  8  1  0
  8  9  1  0
  9  4  1  0
  2  4  1  0
 10 11  1  0
 11 12  1  0
 12 13  1  0
 10 14  1  0
 14 15  1  0
 15 16  1  0
  8 10  1  0
 17 18  1  0
 17 19  1  0
 19 20  1  0
 19 21  2  0
  7 17  1  0
  4 22  1  1
  5 23  1  0
  5 24  1  0
  6 25  1  0
  6 26  1  0
  7 27  1  6
  8 28  1  1
  9 29  1  0
  9 30  1  0
 11 31  1  0
 11 32  1  0
 12 33  1  0
 12 34  1  0
 13 35  1  0
 14 36  1  0
 14 37  1  0
 15 38  1  0
 15 39  1  0
 16 40  1  0
 18 41  1  0
 18 42  1  0
 18 43  1  0
 20 44  1  0
 20 45  1  0
 20 46  1  0
M  CHG  2   3  -1  22  -1
M  END
$$$$
1b9v_Lingo3DMolv2_86590
     RDKit          3D

 48 50  0  0  0  0  0  0  0  0999 V2000
   33.4875  -12.9909   66.0233 O   0  0  0  0  0  0  0  0  0  0  0  0
   32.7874  -12.1909   66.8233 C   0  0  0  0  0  0  0  0  0  0  0  0
   32.6874  -12.3909   68.0233 O   0  0  0  0  0  0  0  0  0  0  0  0
   32.0874  -10.9909   66.1233 C   0  0  0  0  0  0  0  0  0  0  0  0
   32.5874  -10.2909   65.1233 C   0  0  0  0  0  0  0  0  0  0  0  0
   31.5875   -9.2909   64.7233 C   0  0  2  0  0  0  0  0  0  0  0  0
   30.2874   -9.7909   65.3233 C   0  0  2  0  0  0  0  0  0  0  0  0
   30.6874  -10.5909   66.6233 C   0  0  0  0  0  0  0  0  0  0  0  0
   29.5875  -10.6909   64.1233 C   0  0  2  0  0  0  0  0  0  0  0  0
   30.2874   -9.8909   62.6233 S   0  0  0  0  0  0  0  0  0  0  0  0
   31.5875   -8.8909   63.4233 C   0  0  1  0  0  0  0  0  0  0  0  0
   31.1874   -7.3909   63.2233 C   0  0  0  0  0  0  0  0  0  0  0  0
   31.3875   -6.7909   61.8233 C   0  0  0  0  0  0  0  0  0  0  0  0
   31.7874   -5.4909   62.5233 C   0  0  0  0  0  0  0  0  0  0  0  0
   32.0874   -6.2909   63.8233 C   0  0  0  0  0  0  0  0  0  0  0  0
   32.8875   -9.0909   62.5233 C   0  0  0  0  0  0  0  0  0  0  0  0
   34.0874   -8.3909   63.0233 N   0  0  0  0  0  4  0  0  0  0  0  0
   28.0875  -10.5909   64.1233 C   0  0  1  0  0  0  0  0  0  0  0  0
   27.6874   -9.2909   63.8233 O   0  0  0  0  0  0  0  0  0  0  0  0
   27.3875  -11.4909   63.0233 C   0  0  0  0  0  0  0  0  0  0  0  0
   27.7874  -12.8909   63.2233 O   0  0  0  0  0  0  0  0  0  0  0  0
   30.1874  -11.9909   64.1233 O   0  0  0  0  0  0  0  0  0  0  0  0
   33.7874  -10.3909   64.6233 N   0  0  0  0  0  0  0  0  0  0  0  0
   33.5449  -12.7951   65.0546 H   0  0  0  0  0  0  0  0  0  0  0  0
   31.8331   -8.2962   65.1234 H   0  0  0  0  0  0  0  0  0  0  0  0
   29.5598   -9.0281   65.6373 H   0  0  0  0  0  0  0  0  0  0  0  0
   30.7196   -9.9574   67.5220 H   0  0  0  0  0  0  0  0  0  0  0  0
   30.0153  -11.3986   66.9488 H   0  0  0  0  0  0  0  0  0  0  0  0
   30.1784   -7.5422   63.6342 H   0  0  0  0  0  0  0  0  0  0  0  0
   32.1872   -7.2600   61.2314 H   0  0  0  0  0  0  0  0  0  0  0  0
   30.5974   -6.8212   61.0586 H   0  0  0  0  0  0  0  0  0  0  0  0
   32.6674   -4.9967   62.0859 H   0  0  0  0  0  0  0  0  0  0  0  0
   31.1006   -4.6319   62.5417 H   0  0  0  0  0  0  0  0  0  0  0  0
   33.1409   -6.5761   63.9608 H   0  0  0  0  0  0  0  0  0  0  0  0
   31.9218   -5.8728   64.8272 H   0  0  0  0  0  0  0  0  0  0  0  0
   32.6671   -8.7174   61.5124 H   0  0  0  0  0  0  0  0  0  0  0  0
   33.1201  -10.1659   62.5412 H   0  0  0  0  0  0  0  0  0  0  0  0
   34.0824   -8.3939   64.0533 H   0  0  0  0  0  0  0  0  0  0  0  0
   34.9323   -8.8718   62.6827 H   0  0  0  0  0  0  0  0  0  0  0  0
   34.0848   -7.4189   62.6827 H   0  0  0  0  0  0  0  0  0  0  0  0
   27.7902  -10.9214   65.1295 H   0  0  0  0  0  0  0  0  0  0  0  0
   27.5336   -8.7908   64.6637 H   0  0  0  0  0  0  0  0  0  0  0  0
   26.2949  -11.4030   63.1158 H   0  0  0  0  0  0  0  0  0  0  0  0
   27.6936  -11.1571   62.0209 H   0  0  0  0  0  0  0  0  0  0  0  0
   27.8424  -13.0832   64.1929 H   0  0  0  0  0  0  0  0  0  0  0  0
   30.3257  -12.2906   65.0567 H   0  0  0  0  0  0  0  0  0  0  0  0
   34.0697   -9.7882   63.8372 H   0  0  0  0  0  0  0  0  0  0  0  0
   34.4532  -11.0727   65.0144 H   0  0  0  0  0  0  0  0  0  0  0  0
  1  2  1  0
  2  3  2  0
  4  5  2  0
  6  5  1  0
  6  7  1  0
  7  8  1  0
  7  9  1  0
  9 10  1  0
 10 11  1  0
  8  4  1  0
 11  6  1  0
  2  4  1  0
 12 13  1  0
 13 14  1  0
 14 15  1  0
 15 12  1  0
 11 12  1  0
 16 17  1  0
 11 16  1  6
 18 19  1  0
 18 20  1  0
 20 21  1  0
  9 18  1  0
  9 22  1  1
  5 23  1  0
  1 24  1  0
  6 25  1  1
  7 26  1  1
  8 27  1  0
  8 28  1  0
 12 29  1  0
 13 30  1  0
 13 31  1  0
 14 32  1  0
 14 33  1  0
 15 34  1  0
 15 35  1  0
 16 36  1  0
 16 37  1  0
 17 38  1  0
 17 39  1  0
 17 40  1  0
 18 41  1  1
 19 42  1  0
 20 43  1  0
 20 44  1  0
 21 45  1  0
 22 46  1  0
 23 47  1  0
 23 48  1  0
M  CHG  1  17   1
M  END
$$$$
1b9v_Lingo3DMolv2_914726
     RDKit          3D

 25 26  0  0  0  0  0  0  0  0999 V2000
   33.0874  -12.1909   66.4233 O   0  0  0  0  0  0  0  0  0  0  0  0
   32.0874  -12.8909   66.8233 C   0  0  0  0  0  0  0  0  0  0  0  0
   30.6874  -12.4909   66.7233 C   0  0  0  0  0  0  0  0  0  0  0  0
   29.7874  -13.1909   67.5233 N   0  0  0  0  0  0  0  0  0  0  0  0
   30.2874  -14.1909   68.4233 O   0  0  0  0  0  0  0  0  0  0  0  0
   30.1874  -11.4909   65.8233 C   0  0  2  0  0  0  0  0  0  0  0  0
   28.6874  -10.9909   66.0233 C   0  0  0  0  0  0  0  0  0  0  0  0
   28.3875   -9.7909   65.0233 C   0  0  0  0  0  0  0  0  0  0  0  0
   28.6874  -10.1909   63.5233 C   0  0  2  0  0  0  0  0  0  0  0  0
   30.0875  -10.6909   63.4233 O   0  0  0  0  0  0  0  0  0  0  0  0
   30.3875  -11.6909   64.2233 C   0  0  1  0  0  0  0  0  0  0  0  0
   27.7874  -11.1909   63.0233 N   0  0  0  0  0  0  0  0  0  0  0  0
   27.7874  -12.4909   63.5233 C   0  0  0  0  0  0  0  0  0  0  0  0
   32.3034  -13.8694   67.2772 H   0  0  0  0  0  0  0  0  0  0  0  0
   29.6606  -14.6971   68.9986 H   0  0  0  0  0  0  0  0  0  0  0  0
   30.8967  -10.7267   66.1739 H   0  0  0  0  0  0  0  0  0  0  0  0
   27.9946  -11.8204   65.8182 H   0  0  0  0  0  0  0  0  0  0  0  0
   28.5523  -10.6460   67.0591 H   0  0  0  0  0  0  0  0  0  0  0  0
   27.3278   -9.5093   65.1121 H   0  0  0  0  0  0  0  0  0  0  0  0
   29.0428   -8.9491   65.2914 H   0  0  0  0  0  0  0  0  0  0  0  0
   31.0203  -12.5893   64.1750 H   0  0  0  0  0  0  0  0  0  0  0  0
   27.9733  -11.2690   62.0132 H   0  0  0  0  0  0  0  0  0  0  0  0
   28.8245  -12.8332   63.6550 H   0  0  0  0  0  0  0  0  0  0  0  0
   27.2689  -12.5108   64.4932 H   0  0  0  0  0  0  0  0  0  0  0  0
   27.2689  -13.1556   62.8167 H   0  0  0  0  0  0  0  0  0  0  0  0
  1  2  2  0
  2  3  1  0
  3  4  2  3
  4  5  1  0
  6  7  1  0
  7  8  1  0
  8  9  1  0
  9 10  1  0
 10 11  1  0
 11  6  1  0
 11  9  1  0
  3  6  1  0
 12 13  1  0
  9 12  1  6
  2 14  1  0
  5 15  1  0
  6 16  1  1
  7 17  1  0
  7 18  1  0
  8 19  1  0
  8 20  1  0
 11 21  1  1
 12 22  1  0
 13 23  1  0
 13 24  1  0
 13 25  1  0
M  END
$$$$
1b9v_PMDM_103587
     RDKit          3D

 41 41  0  0  0  0  0  0  0  0999 V2000
   30.1378  -10.0463   58.1130 C   0  0  0  0  0  0  0  0  0  0  0  0
   39.7479  -14.3246   59.9840 C   0  0  0  0  0  0  0  0  0  0  0  0
   31.8319   -8.4088   60.2274 C   0  0  0  0  0  0  0  0  0  0  0  0
   35.7131  -11.6235   59.9553 C   0  0  1  0  0  0  0  0  0  0  0  0
   29.9366   -8.9201   57.4620 N   0  0  0  0  0  0  0  0  0  0  0  0
   31.5362  -10.2998   58.6438 C   0  0  0  0  0  0  0  0  0  0  0  0
   40.4018  -14.1868   61.0441 O   0  0  0  0  0  0  0  0  0  0  0  0
   37.0450  -11.7955   59.2101 C   0  0  0  0  0  0  0  0  0  0  0  0
   38.1911  -12.3391   60.0709 C   0  0  0  0  0  0  0  0  0  0  0  0
   32.4165   -7.8783   61.5275 C   0  0  0  0  0  0  0  0  0  0  0  0
   29.2819  -10.9069   58.1647 O   0  0  0  0  0  0  0  0  0  0  0  0
   33.3445  -10.4191   60.3793 C   0  0  1  0  0  0  0  0  0  0  0  0
   33.8058   -9.9440   61.7568 C   0  0  0  0  0  0  0  0  0  0  0  0
   39.2409  -13.1001   59.2526 C   0  0  0  0  0  0  0  0  0  0  0  0
   39.3959  -15.4346   59.5214 O   0  0  0  0  0  0  0  0  0  0  0  0
   31.9077   -9.9299   60.0913 C   0  0  1  0  0  0  0  0  0  0  0  0
   33.8247   -8.4181   61.7976 C   0  0  0  0  0  0  0  0  0  0  0  0
   34.7443  -12.5725   59.5386 O   0  0  0  0  0  0  0  0  0  0  0  0
   30.7751   -8.1082   60.1743 H   0  0  0  0  0  0  0  0  0  0  0  0
   32.4324   -7.9839   59.4095 H   0  0  0  0  0  0  0  0  0  0  0  0
   36.4858  -11.2534   60.6452 H   0  0  0  0  0  0  0  0  0  0  0  0
   29.0036   -8.7039   57.0830 H   0  0  0  0  0  0  0  0  0  0  0  0
   30.7122   -8.2550   57.3316 H   0  0  0  0  0  0  0  0  0  0  0  0
   31.7213  -11.3790   58.5382 H   0  0  0  0  0  0  0  0  0  0  0  0
   32.1525   -9.6096   58.0490 H   0  0  0  0  0  0  0  0  0  0  0  0
   36.8832  -12.4920   58.3742 H   0  0  0  0  0  0  0  0  0  0  0  0
   37.3507  -10.7913   58.8812 H   0  0  0  0  0  0  0  0  0  0  0  0
   38.6833  -11.4942   60.5747 H   0  0  0  0  0  0  0  0  0  0  0  0
   37.7563  -13.0474   60.7915 H   0  0  0  0  0  0  0  0  0  0  0  0
   32.4635   -6.7807   61.4718 H   0  0  0  0  0  0  0  0  0  0  0  0
   31.7658   -8.2126   62.3490 H   0  0  0  0  0  0  0  0  0  0  0  0
   32.9546  -11.3442   60.8289 H   0  0  0  0  0  0  0  0  0  0  0  0
   33.1137  -10.3213   62.5240 H   0  0  0  0  0  0  0  0  0  0  0  0
   34.8190  -10.3253   61.9521 H   0  0  0  0  0  0  0  0  0  0  0  0
   40.0893  -12.4296   59.0511 H   0  0  0  0  0  0  0  0  0  0  0  0
   38.7679  -13.4334   58.3171 H   0  0  0  0  0  0  0  0  0  0  0  0
   38.8797  -15.4781   58.6777 H   0  0  0  0  0  0  0  0  0  0  0  0
   31.2190  -10.4017   60.8076 H   0  0  0  0  0  0  0  0  0  0  0  0
   34.5151   -8.0400   61.0292 H   0  0  0  0  0  0  0  0  0  0  0  0
   34.1594   -8.0837   62.7907 H   0  0  0  0  0  0  0  0  0  0  0  0
   34.3231  -12.9851   60.3339 H   0  0  0  0  0  0  0  0  0  0  0  0
  5  1  1  0
  6  1  1  0
  7  2  2  0
  8  4  1  0
  9  8  1  0
 10  3  1  0
 11  1  2  0
 12  4  1  0
 13 12  1  0
 14  2  1  0
 14  9  1  0
 15  2  1  0
 16  3  1  0
 16  6  1  0
 16 12  1  0
 17 10  1  0
 17 13  1  0
 18  4  1  0
  3 19  1  0
  3 20  1  0
  4 21  1  1
  5 22  1  0
  5 23  1  0
  6 24  1  0
  6 25  1  0
  8 26  1  0
  8 27  1  0
  9 28  1  0
  9 29  1  0
 10 30  1  0
 10 31  1  0
 12 32  1  1
 13 33  1  0
 13 34  1  0
 14 35  1  0
 14 36  1  0
 15 37  1  0
 16 38  1  1
 17 39  1  0
 17 40  1  0
 18 41  1  0
M  END
$$$$
1b9v_PMDM_24964
     RDKit          3D

 38 39  0  0  0  0  0  0  0  0999 V2000
   39.6302  -14.9530   59.0510 C   0  0  2  0  0  0  0  0  0  0  0  0
   40.4852  -14.8845   60.2992 C   0  0  0  0  0  0  0  0  0  0  0  0
   34.9660   -9.9723   61.5119 C   0  0  0  0  0  0  0  0  0  0  0  0
   30.8218  -10.5457   63.9183 C   0  0  0  0  0  0  0  0  0  0  0  0
   30.4716   -9.7807   62.6629 C   0  0  0  0  0  0  0  0  0  0  0  0
   34.8890  -11.2195   61.4145 N   0  0  0  0  0  0  0  0  0  0  0  0
   39.1772  -13.6372   58.7752 O   0  0  0  0  0  0  0  0  0  0  0  0
   34.1769   -9.2823   62.6018 C   0  0  1  0  0  0  0  0  0  0  0  0
   32.8180   -9.8689   62.7962 C   0  0  1  0  0  0  0  0  0  0  0  0
   38.5766  -15.8318   59.1150 O   0  0  0  0  0  0  0  0  0  0  0  0
   32.3222  -10.6494   63.9737 C   0  0  0  0  0  0  0  0  0  0  0  0
   31.7667   -9.5655   61.9416 C   0  0  0  0  0  0  0  0  0  0  0  0
   40.1326  -13.5278   60.9029 C   0  0  0  0  0  0  0  0  0  0  0  0
   38.6923  -11.8077   59.9457 O   0  0  0  0  0  0  0  0  0  0  0  0
   39.2831  -12.8525   59.8929 C   0  0  1  0  0  0  0  0  0  0  0  0
   34.8855   -9.3549   63.8619 N   0  0  0  0  0  0  0  0  0  0  0  0
   34.9222  -11.7867   60.1294 O   0  0  0  0  0  0  0  0  0  0  0  0
   31.8648   -9.0853   60.7984 O   0  0  0  0  0  0  0  0  0  0  0  0
   40.2563  -15.3524   58.2395 H   0  0  0  0  0  0  0  0  0  0  0  0
   40.2333  -15.7002   60.9928 H   0  0  0  0  0  0  0  0  0  0  0  0
   41.5593  -14.9915   60.0875 H   0  0  0  0  0  0  0  0  0  0  0  0
   36.0256   -9.7242   61.6718 H   0  0  0  0  0  0  0  0  0  0  0  0
   34.5163   -9.6017   60.5789 H   0  0  0  0  0  0  0  0  0  0  0  0
   30.4484  -10.0090   64.8029 H   0  0  0  0  0  0  0  0  0  0  0  0
   30.3620  -11.5449   63.9072 H   0  0  0  0  0  0  0  0  0  0  0  0
   29.7783  -10.3644   62.0395 H   0  0  0  0  0  0  0  0  0  0  0  0
   29.9742   -8.8275   62.8951 H   0  0  0  0  0  0  0  0  0  0  0  0
   35.6777  -11.6168   61.9445 H   0  0  0  0  0  0  0  0  0  0  0  0
   34.0595   -8.2380   62.2767 H   0  0  0  0  0  0  0  0  0  0  0  0
   33.7796  -10.3557   62.5763 H   0  0  0  0  0  0  0  0  0  0  0  0
   38.3569  -16.0151   60.0627 H   0  0  0  0  0  0  0  0  0  0  0  0
   32.7036  -10.2169   64.9104 H   0  0  0  0  0  0  0  0  0  0  0  0
   32.6615  -11.6953   63.9436 H   0  0  0  0  0  0  0  0  0  0  0  0
   39.5796  -13.6584   61.8448 H   0  0  0  0  0  0  0  0  0  0  0  0
   41.0322  -12.9399   61.1378 H   0  0  0  0  0  0  0  0  0  0  0  0
   38.3921  -13.3377   60.3179 H   0  0  0  0  0  0  0  0  0  0  0  0
   34.2126   -9.2860   64.6387 H   0  0  0  0  0  0  0  0  0  0  0  0
   35.3883  -10.2518   63.9218 H   0  0  0  0  0  0  0  0  0  0  0  0
  2  1  1  0
  5  4  1  0
  6  3  1  0
  7  1  1  0
  8  3  1  0
  9  8  1  0
 10  1  1  0
 11  4  1  0
 11  9  1  0
 12  5  1  0
 12  9  1  0
 13  2  1  0
 15  7  1  0
 15 13  1  0
 15 14  1  0
 16  8  1  0
 17  6  1  0
 17 14  1  0
 18 12  2  0
  1 19  1  6
  2 20  1  0
  2 21  1  0
  3 22  1  0
  3 23  1  0
  4 24  1  0
  4 25  1  0
  5 26  1  0
  5 27  1  0
  6 28  1  0
  8 29  1  6
  9 30  1  6
 10 31  1  0
 11 32  1  0
 11 33  1  0
 13 34  1  0
 13 35  1  0
 15 36  1  1
 16 37  1  0
 16 38  1  0
M  END
$$$$
1b9v_PMDM_50391
     RDKit          3D

 30 31  0  0  0  0  0  0  0  0999 V2000
   36.6561  -12.1961   61.4874 N   0  0  0  0  0  0  0  0  0  0  0  0
   32.8796   -9.7702   62.2768 C   0  0  1  0  0  0  0  0  0  0  0  0
   32.2413  -10.6220   63.3027 C   0  0  0  0  0  0  0  0  0  0  0  0
   37.7841  -12.7687   60.9670 C   0  0  2  0  0  0  0  0  0  0  0  0
   36.0094  -11.0364   61.3913 C   0  0  0  0  0  0  0  0  0  0  0  0
   38.5088  -13.5346   61.8470 O   0  0  0  0  0  0  0  0  0  0  0  0
   32.4020   -7.6437   61.2655 N   0  0  0  0  0  0  0  0  0  0  0  0
   30.9992   -9.4175   60.9491 O   0  0  0  0  0  0  0  0  0  0  0  0
   34.5865   -8.0890   62.1835 C   0  0  0  0  0  0  0  0  0  0  0  0
   39.7295  -14.4402   60.0053 C   0  0  0  0  0  0  0  0  0  0  0  0
   33.4875   -7.1803   62.0047 C   0  0  0  0  0  0  0  0  0  0  0  0
   39.1752  -13.5604   59.1883 N   0  0  0  0  0  0  0  0  0  0  0  0
   39.4361  -14.4431   61.3521 C   0  0  0  0  0  0  0  0  0  0  0  0
   33.3998   -6.1143   62.6046 O   0  0  0  0  0  0  0  0  0  0  0  0
   38.1968  -12.7423   59.6202 C   0  0  0  0  0  0  0  0  0  0  0  0
   32.0273   -8.9590   61.4330 C   0  0  0  0  0  0  0  0  0  0  0  0
   35.2003  -10.4558   62.2641 N   0  0  0  0  0  0  0  0  0  0  0  0
   34.2461   -9.4526   62.1597 C   0  0  0  0  0  0  0  0  0  0  0  0
   36.1741  -12.8397   62.1312 H   0  0  0  0  0  0  0  0  0  0  0  0
   33.1314  -10.8316   62.1350 H   0  0  0  0  0  0  0  0  0  0  0  0
   32.5146  -10.2573   64.3039 H   0  0  0  0  0  0  0  0  0  0  0  0
   31.1485  -10.5826   63.1838 H   0  0  0  0  0  0  0  0  0  0  0  0
   32.5859  -11.6598   63.1838 H   0  0  0  0  0  0  0  0  0  0  0  0
   37.2004  -13.6547   60.6766 H   0  0  0  0  0  0  0  0  0  0  0  0
   36.1698  -10.4823   60.4547 H   0  0  0  0  0  0  0  0  0  0  0  0
   31.8966   -7.0244   60.6159 H   0  0  0  0  0  0  0  0  0  0  0  0
   35.6203   -7.7422   62.3286 H   0  0  0  0  0  0  0  0  0  0  0  0
   40.4360  -15.1815   59.6037 H   0  0  0  0  0  0  0  0  0  0  0  0
   39.9306  -15.1567   62.0275 H   0  0  0  0  0  0  0  0  0  0  0  0
   37.7158  -12.0477   58.9158 H   0  0  0  0  0  0  0  0  0  0  0  0
  3  2  1  0
  4  1  1  0
  5  1  1  0
  6  4  1  0
 11  7  1  0
 11  9  1  0
 12 10  1  0
 13  6  1  0
 13 10  2  0
 14 11  2  0
 15  4  1  0
 15 12  2  0
 16  2  1  0
 16  7  1  0
 16  8  2  0
 17  5  2  3
 18  2  1  0
 18  9  2  0
 18 17  1  0
  1 19  1  0
  2 20  1  6
  3 21  1  0
  3 22  1  0
  3 23  1  0
  4 24  1  1
  5 25  1  0
  7 26  1  0
  9 27  1  0
 10 28  1  0
 13 29  1  0
 15 30  1  0
M  END
$$$$
1b9v_PMDM_52198
     RDKit          3D

 43 43  0  0  0  0  0  0  0  0999 V2000
   29.4148   -9.3108   55.9561 N   0  0  0  0  0  0  0  0  0  0  0  0
   30.2191  -10.2007   56.5310 C   0  0  0  0  0  0  0  0  0  0  0  0
   34.9245  -11.8558   59.4072 C   0  0  0  0  0  0  0  0  0  0  0  0
   32.3942   -9.0767   60.3780 C   0  0  0  0  0  0  0  0  0  0  0  0
   38.8970  -15.1879   58.4630 C   0  0  0  0  0  0  0  0  0  0  0  0
   37.2938  -12.6678   59.2494 C   0  0  0  0  0  0  0  0  0  0  0  0
   40.6444  -14.3748   59.9278 O   0  0  0  0  0  0  0  0  0  0  0  0
   38.9619  -12.5882   60.9350 O   0  0  0  0  0  0  0  0  0  0  0  0
   30.6176   -9.9792   58.0007 C   0  0  0  0  0  0  0  0  0  0  0  0
   34.2613  -10.4949   59.7683 C   0  0  1  0  0  0  0  0  0  0  0  0
   33.2410   -9.2398   61.6440 C   0  0  0  0  0  0  0  0  0  0  0  0
   38.5993  -13.0154   59.8603 C   0  0  0  0  0  0  0  0  0  0  0  0
   39.5324  -13.9971   59.1299 C   0  0  2  0  0  0  0  0  0  0  0  0
   32.7526  -10.3044   59.5260 C   0  0  2  0  0  0  0  0  0  0  0  0
   32.1418  -10.2098   58.1274 C   0  0  0  0  0  0  0  0  0  0  0  0
   30.5961  -11.2345   55.9710 O   0  0  0  0  0  0  0  0  0  0  0  0
   36.4495  -11.6767   59.5358 C   0  0  0  0  0  0  0  0  0  0  0  0
   34.3478  -10.2374   61.2861 C   0  0  0  0  0  0  0  0  0  0  0  0
   29.1308   -9.4324   54.9735 H   0  0  0  0  0  0  0  0  0  0  0  0
   29.0760   -8.5001   56.4935 H   0  0  0  0  0  0  0  0  0  0  0  0
   34.5785  -12.6375   60.0994 H   0  0  0  0  0  0  0  0  0  0  0  0
   34.6550  -12.1588   58.3847 H   0  0  0  0  0  0  0  0  0  0  0  0
   31.3220   -9.0714   60.6235 H   0  0  0  0  0  0  0  0  0  0  0  0
   32.5929   -8.1287   59.8567 H   0  0  0  0  0  0  0  0  0  0  0  0
   38.5260  -15.8832   59.2304 H   0  0  0  0  0  0  0  0  0  0  0  0
   38.0580  -14.8525   57.8357 H   0  0  0  0  0  0  0  0  0  0  0  0
   39.6428  -15.6981   57.8357 H   0  0  0  0  0  0  0  0  0  0  0  0
   37.5264  -12.5225   58.1841 H   0  0  0  0  0  0  0  0  0  0  0  0
   36.7066  -13.4887   59.6867 H   0  0  0  0  0  0  0  0  0  0  0  0
   40.4062  -14.2939   60.8853 H   0  0  0  0  0  0  0  0  0  0  0  0
   30.3701   -8.9509   58.3029 H   0  0  0  0  0  0  0  0  0  0  0  0
   30.0719  -10.6777   58.6521 H   0  0  0  0  0  0  0  0  0  0  0  0
   34.8251   -9.8335   59.0941 H   0  0  0  0  0  0  0  0  0  0  0  0
   33.6775   -8.2742   61.9389 H   0  0  0  0  0  0  0  0  0  0  0  0
   32.6357   -9.5961   62.4905 H   0  0  0  0  0  0  0  0  0  0  0  0
   39.8841  -13.3961   58.2784 H   0  0  0  0  0  0  0  0  0  0  0  0
   32.2978  -11.2701   59.7918 H   0  0  0  0  0  0  0  0  0  0  0  0
   32.3717  -11.1521   57.6085 H   0  0  0  0  0  0  0  0  0  0  0  0
   32.5878   -9.2995   57.7003 H   0  0  0  0  0  0  0  0  0  0  0  0
   36.7201  -10.8384   58.8770 H   0  0  0  0  0  0  0  0  0  0  0  0
   36.5830  -11.5586   60.6213 H   0  0  0  0  0  0  0  0  0  0  0  0
   34.1988  -11.1781   61.8364 H   0  0  0  0  0  0  0  0  0  0  0  0
   35.3356   -9.8362   61.5569 H   0  0  0  0  0  0  0  0  0  0  0  0
  2  1  1  0
  9  2  1  0
 10  3  1  0
 11  4  1  0
 12  6  1  0
 12  8  2  0
 13  5  1  0
 13  7  1  0
 13 12  1  0
 14  4  1  0
 14 10  1  0
 15  9  1  0
 15 14  1  0
 16  2  2  0
 17  3  1  0
 17  6  1  0
 18 10  1  0
 18 11  1  0
  1 19  1  0
  1 20  1  0
  3 21  1  0
  3 22  1  0
  4 23  1  0
  4 24  1  0
  5 25  1  0
  5 26  1  0
  5 27  1  0
  6 28  1  0
  6 29  1  0
  7 30  1  0
  9 31  1  0
  9 32  1  0
 10 33  1  6
 11 34  1  0
 11 35  1  0
 13 36  1  6
 14 37  1  1
 15 38  1  0
 15 39  1  0
 17 40  1  0
 17 41  1  0
 18 42  1  0
 18 43  1  0
M  END
$$$$
1b9v_PMDM_58074
     RDKit          3D

 41 42  0  0  0  0  0  0  0  0999 V2000
   34.9420  -11.4440   61.5367 O   0  0  0  0  0  0  0  0  0  0  0  0
   38.1135  -12.6388   59.8961 C   0  0  2  0  0  0  0  0  0  0  0  0
   39.4922  -15.5756   58.8605 N   0  0  0  0  0  0  0  0  0  0  0  0
   34.1135  -10.7023   62.3932 C   0  0  1  0  0  0  0  0  0  0  0  0
   39.1516  -12.7464   60.7928 C   0  0  0  0  0  0  0  0  0  0  0  0
   33.0609   -9.9995   61.7107 C   0  0  1  0  0  0  0  0  0  0  0  0
   34.0849  -10.7596   63.8254 C   0  0  0  0  0  0  0  0  0  0  0  0
   31.7577  -10.4258   61.6973 O   0  0  0  0  0  0  0  0  0  0  0  0
   32.8162  -10.7921   64.4676 C   0  0  0  0  0  0  0  0  0  0  0  0
   39.9030  -13.8781   60.4216 C   0  0  0  0  0  0  0  0  0  0  0  0
   36.6590  -12.3160   60.2372 C   0  0  0  0  0  0  0  0  0  0  0  0
   36.3578  -11.6530   61.5878 C   0  0  0  0  0  0  0  0  0  0  0  0
   39.4488  -14.2447   59.1670 C   0  0  2  0  0  0  0  0  0  0  0  0
   30.9653  -10.3478   62.8603 C   0  0  0  0  0  0  0  0  0  0  0  0
   38.3234  -13.5853   58.9374 N   0  0  0  0  0  0  0  0  0  0  0  0
   31.5523  -10.9671   63.9863 C   0  0  0  0  0  0  0  0  0  0  0  0
   33.2174   -8.5829   61.2535 C   0  0  0  0  0  0  0  0  0  0  0  0
   38.1943  -11.5898   59.5751 H   0  0  0  0  0  0  0  0  0  0  0  0
   39.5102  -16.1277   59.7298 H   0  0  0  0  0  0  0  0  0  0  0  0
   38.6590  -15.8286   58.3103 H   0  0  0  0  0  0  0  0  0  0  0  0
   35.0044  -10.2635   62.8662 H   0  0  0  0  0  0  0  0  0  0  0  0
   39.7810  -11.8452   60.7514 H   0  0  0  0  0  0  0  0  0  0  0  0
   38.7727  -12.8476   61.8205 H   0  0  0  0  0  0  0  0  0  0  0  0
   33.5724  -10.6592   60.9944 H   0  0  0  0  0  0  0  0  0  0  0  0
   35.0164  -10.7779   64.4102 H   0  0  0  0  0  0  0  0  0  0  0  0
   32.8634  -10.6492   65.5573 H   0  0  0  0  0  0  0  0  0  0  0  0
   40.9738  -13.6295   60.3825 H   0  0  0  0  0  0  0  0  0  0  0  0
   39.7836  -14.6960   61.1474 H   0  0  0  0  0  0  0  0  0  0  0  0
   36.2824  -11.6429   59.4529 H   0  0  0  0  0  0  0  0  0  0  0  0
   36.1712  -13.2997   60.3033 H   0  0  0  0  0  0  0  0  0  0  0  0
   36.8948  -10.6982   61.6878 H   0  0  0  0  0  0  0  0  0  0  0  0
   36.6751  -12.2600   62.4485 H   0  0  0  0  0  0  0  0  0  0  0  0
   40.1795  -13.9296   58.4075 H   0  0  0  0  0  0  0  0  0  0  0  0
   30.7962   -9.2866   63.0956 H   0  0  0  0  0  0  0  0  0  0  0  0
   30.0281  -10.8835   62.6490 H   0  0  0  0  0  0  0  0  0  0  0  0
   37.5361  -14.2494   58.9403 H   0  0  0  0  0  0  0  0  0  0  0  0
   31.4759  -12.0458   63.7847 H   0  0  0  0  0  0  0  0  0  0  0  0
   30.9948  -10.4449   64.7778 H   0  0  0  0  0  0  0  0  0  0  0  0
   33.2905   -7.9210   62.1290 H   0  0  0  0  0  0  0  0  0  0  0  0
   34.1311   -8.4919   60.6477 H   0  0  0  0  0  0  0  0  0  0  0  0
   32.3456   -8.2947   60.6477 H   0  0  0  0  0  0  0  0  0  0  0  0
  4  1  1  0
  5  2  1  0
  6  4  1  0
  7  4  1  0
  8  6  1  0
  9  7  2  0
 10  5  1  0
 11  2  1  0
 12  1  1  0
 12 11  1  0
 13  3  1  0
 13 10  1  0
 14  8  1  0
 15  2  1  0
 15 13  1  0
 16  9  1  0
 16 14  1  0
 17  6  1  0
  2 18  1  6
  3 19  1  0
  3 20  1  0
  4 21  1  1
  5 22  1  0
  5 23  1  0
  6 24  1  6
  7 25  1  0
  9 26  1  0
 10 27  1  0
 10 28  1  0
 11 29  1  0
 11 30  1  0
 12 31  1  0
 12 32  1  0
 13 33  1  6
 14 34  1  0
 14 35  1  0
 15 36  1  0
 16 37  1  0
 16 38  1  0
 17 39  1  0
 17 40  1  0
 17 41  1  0
M  END
$$$$
1b9v_PMDM_69391
     RDKit          3D

 41 42  0  0  0  0  0  0  0  0999 V2000
   32.7485   -9.5726   61.5981 C   0  0  0  0  0  0  0  0  0  0  0  0
   34.0720  -10.4942   63.3796 C   0  0  2  0  0  0  0  0  0  0  0  0
   33.0249   -8.1934   61.5539 O   0  0  0  0  0  0  0  0  0  0  0  0
   32.1622   -9.7464   60.3554 O   0  0  0  0  0  0  0  0  0  0  0  0
   38.9723  -13.5912   58.6652 C   0  0  0  0  0  0  0  0  0  0  0  0
   34.0184  -10.3677   61.8637 C   0  0  1  0  0  0  0  0  0  0  0  0
   39.8183  -14.6902   58.7636 C   0  0  0  0  0  0  0  0  0  0  0  0
   30.6089  -10.7377   62.3605 C   0  0  1  0  0  0  0  0  0  0  0  0
   36.7807  -11.4495   60.9537 N   0  0  0  0  0  0  0  0  0  0  0  0
   32.6705  -10.5479   63.7692 N   0  0  0  0  0  0  0  0  0  0  0  0
   38.6843  -12.8438   59.8023 C   0  0  0  0  0  0  0  0  0  0  0  0
   37.3154  -12.1917   59.8190 C   0  0  0  0  0  0  0  0  0  0  0  0
   34.6332  -11.8494   59.7992 O   0  0  0  0  0  0  0  0  0  0  0  0
   30.1370  -11.5947   63.5134 C   0  0  0  0  0  0  0  0  0  0  0  0
   34.6790   -9.3921   63.9988 O   0  0  0  0  0  0  0  0  0  0  0  0
   40.4322  -14.0077   60.9724 C   0  0  0  0  0  0  0  0  0  0  0  0
   39.4711  -13.0041   60.9414 C   0  0  0  0  0  0  0  0  0  0  0  0
   29.6098   -9.7953   62.0134 O   0  0  0  0  0  0  0  0  0  0  0  0
   31.8374   -9.9299   62.7571 C   0  0  1  0  0  0  0  0  0  0  0  0
   40.4777  -14.9496   59.9526 C   0  0  0  0  0  0  0  0  0  0  0  0
   35.2066  -11.0234   60.8029 S   0  0  0  0  0  4  0  0  0  0  0  0
   34.6664  -11.3693   63.6811 H   0  0  0  0  0  0  0  0  0  0  0  0
   33.0955   -7.8413   62.4765 H   0  0  0  0  0  0  0  0  0  0  0  0
   31.2196  -10.0258   60.4714 H   0  0  0  0  0  0  0  0  0  0  0  0
   38.5339  -13.3148   57.6950 H   0  0  0  0  0  0  0  0  0  0  0  0
   34.5926   -9.4313   61.9215 H   0  0  0  0  0  0  0  0  0  0  0  0
   39.9634  -15.3527   57.8976 H   0  0  0  0  0  0  0  0  0  0  0  0
   30.8356  -11.4145   61.5235 H   0  0  0  0  0  0  0  0  0  0  0  0
   36.8766  -12.0351   61.7956 H   0  0  0  0  0  0  0  0  0  0  0  0
   32.3887  -11.5317   63.8856 H   0  0  0  0  0  0  0  0  0  0  0  0
   36.5966  -13.0020   59.6271 H   0  0  0  0  0  0  0  0  0  0  0  0
   37.4602  -11.3820   59.0886 H   0  0  0  0  0  0  0  0  0  0  0  0
   30.4040  -11.1098   64.4640 H   0  0  0  0  0  0  0  0  0  0  0  0
   29.0451  -11.7156   63.4575 H   0  0  0  0  0  0  0  0  0  0  0  0
   30.6186  -12.5821   63.4575 H   0  0  0  0  0  0  0  0  0  0  0  0
   34.6230   -9.4938   64.9820 H   0  0  0  0  0  0  0  0  0  0  0  0
   41.1539  -14.0558   61.8012 H   0  0  0  0  0  0  0  0  0  0  0  0
   39.3326  -12.3419   61.8087 H   0  0  0  0  0  0  0  0  0  0  0  0
   29.2107   -9.4188   62.8375 H   0  0  0  0  0  0  0  0  0  0  0  0
   31.3729   -9.0213   63.1679 H   0  0  0  0  0  0  0  0  0  0  0  0
   41.0312  -15.8905   60.0883 H   0  0  0  0  0  0  0  0  0  0  0  0
  3  1  1  0
  4  1  1  0
  6  1  1  0
  6  2  1  0
  7  5  2  0
 10  2  1  0
 11  5  1  0
 12  9  1  0
 12 11  1  0
 14  8  1  0
 15  2  1  0
 17 11  2  0
 17 16  1  0
 18  8  1  0
 19  1  1  0
 19  8  1  0
 19 10  1  0
 20  7  1  0
 20 16  2  0
 21  6  1  0
 21  9  1  1
 21 13  2  0
  2 22  1  6
  3 23  1  0
  4 24  1  0
  5 25  1  0
  6 26  1  1
  7 27  1  0
  8 28  1  6
  9 29  1  0
 10 30  1  0
 12 31  1  0
 12 32  1  0
 14 33  1  0
 14 34  1  0
 14 35  1  0
 15 36  1  0
 16 37  1  0
 17 38  1  0
 18 39  1  0
 19 40  1  1
 20 41  1  0
M  END
$$$$
1b9v_PMDM_77623
     RDKit          3D

 70 75  0  0  0  0  0  0  0  0999 V2000
   39.1144  -15.8487   59.5513 C   0  0  0  0  0  0  0  0  0  0  0  0
   38.9419  -14.7731   58.4762 C   0  0  1  0  0  0  0  0  0  0  0  0
   31.8009  -10.0187   65.1494 C   0  0  0  0  0  0  0  0  0  0  0  0
   34.2776   -8.0225   62.7579 C   0  0  0  0  0  0  0  0  0  0  0  0
   30.2440  -11.7996   64.2553 C   0  0  0  0  0  0  0  0  0  0  0  0
   37.3814  -12.6940   60.8528 N   0  0  0  0  0  0  0  0  0  0  0  0
   34.2968   -9.3819   63.1383 C   0  0  1  0  0  0  0  0  0  0  0  0
   30.7844   -9.6812   58.9448 C   0  0  0  0  0  0  0  0  0  0  0  0
   32.4921   -9.5050   60.8125 C   0  0  1  0  0  0  0  0  0  0  0  0
   30.8796  -10.4447   64.1988 C   0  0  0  0  0  0  0  0  0  0  0  0
   36.0867  -12.8726   60.8824 C   0  0  0  0  0  0  0  0  0  0  0  0
   29.5033   -7.1049   63.5875 O   0  0  0  0  0  0  0  0  0  0  0  0
   37.6378  -14.0174   58.7566 C   0  0  0  0  0  0  0  0  0  0  0  0
   39.5557  -12.9952   59.7756 C   0  0  2  0  0  0  0  0  0  0  0  0
   30.9569   -8.6025   62.5636 C   0  0  2  0  0  0  0  0  0  0  0  0
   32.1366   -8.6132   61.8053 C   0  0  2  0  0  0  0  0  0  0  0  0
   31.1733   -6.1207   62.2383 C   0  0  0  0  0  0  0  0  0  0  0  0
   38.0612  -12.7761   59.5446 C   0  0  2  0  0  0  0  0  0  0  0  0
   33.5835  -10.3508   60.9883 C   0  0  0  0  0  0  0  0  0  0  0  0
   29.0995  -11.7361   63.2749 C   0  0  0  0  0  0  0  0  0  0  0  0
   34.3825  -10.3078   62.1042 C   0  0  0  0  0  0  0  0  0  0  0  0
   29.1598  -10.4173   62.5428 C   0  0  0  0  0  0  0  0  0  0  0  0
   33.0621   -7.6238   62.2080 C   0  0  2  0  0  0  0  0  0  0  0  0
   39.4143  -13.3566   62.2209 O   0  0  0  0  0  0  0  0  0  0  0  0
   39.9845  -13.7712   58.6376 O   0  0  0  0  0  0  0  0  0  0  0  0
   33.1754  -10.3011   65.2084 C   0  0  0  0  0  0  0  0  0  0  0  0
   39.6956  -15.3361   60.8641 C   0  0  0  0  0  0  0  0  0  0  0  0
   30.3672   -9.7208   63.1268 C   0  0  0  0  0  0  0  0  0  0  0  0
   30.4619   -7.2908   62.8649 C   0  0  0  0  0  0  0  0  0  0  0  0
   39.8920  -13.8582   60.9840 C   0  0  1  0  0  0  0  0  0  0  0  0
   35.1078  -12.9757   60.2627 O   0  0  0  0  0  0  0  0  0  0  0  0
   31.8194   -9.5522   59.5745 C   0  0  0  0  0  0  0  0  0  0  0  0
   34.1822   -9.7704   64.5165 C   0  0  0  0  0  0  0  0  0  0  0  0
   32.6155   -6.3388   62.1605 N   0  0  0  0  0  0  0  0  0  0  0  0
   38.1280  -16.2887   59.7598 H   0  0  0  0  0  0  0  0  0  0  0  0
   39.8332  -16.5799   59.1528 H   0  0  0  0  0  0  0  0  0  0  0  0
   38.9631  -15.2495   57.4849 H   0  0  0  0  0  0  0  0  0  0  0  0
   31.7432   -8.9206   65.1206 H   0  0  0  0  0  0  0  0  0  0  0  0
   31.4673  -10.6395   65.9940 H   0  0  0  0  0  0  0  0  0  0  0  0
   34.4771   -7.4076   63.6479 H   0  0  0  0  0  0  0  0  0  0  0  0
   35.0465   -7.8892   61.9826 H   0  0  0  0  0  0  0  0  0  0  0  0
   30.5462  -12.6553   64.8769 H   0  0  0  0  0  0  0  0  0  0  0  0
   33.1990   -9.4147   63.0767 H   0  0  0  0  0  0  0  0  0  0  0  0
   30.7991   -9.6304   57.8461 H   0  0  0  0  0  0  0  0  0  0  0  0
   29.8352   -9.8485   59.4750 H   0  0  0  0  0  0  0  0  0  0  0  0
   33.1520   -8.7460   60.3670 H   0  0  0  0  0  0  0  0  0  0  0  0
   35.8031  -12.9641   61.9413 H   0  0  0  0  0  0  0  0  0  0  0  0
   37.1479  -13.7291   57.8149 H   0  0  0  0  0  0  0  0  0  0  0  0
   36.9148  -14.6328   59.3121 H   0  0  0  0  0  0  0  0  0  0  0  0
   40.0260  -12.0121   59.9253 H   0  0  0  0  0  0  0  0  0  0  0  0
   31.5471   -8.4524   63.4796 H   0  0  0  0  0  0  0  0  0  0  0  0
   32.6137   -9.2595   62.5567 H   0  0  0  0  0  0  0  0  0  0  0  0
   30.7812   -5.9688   61.2219 H   0  0  0  0  0  0  0  0  0  0  0  0
   30.9955   -5.2364   62.8679 H   0  0  0  0  0  0  0  0  0  0  0  0
   37.8129  -11.8494   59.0064 H   0  0  0  0  0  0  0  0  0  0  0  0
   29.1833  -12.5632   62.5545 H   0  0  0  0  0  0  0  0  0  0  0  0
   28.1427  -11.8232   63.8106 H   0  0  0  0  0  0  0  0  0  0  0  0
   35.1635  -11.0779   62.1880 H   0  0  0  0  0  0  0  0  0  0  0  0
   28.4794  -10.0473   61.7617 H   0  0  0  0  0  0  0  0  0  0  0  0
   32.6121   -7.6114   63.2117 H   0  0  0  0  0  0  0  0  0  0  0  0
   39.8647  -13.8296   62.9649 H   0  0  0  0  0  0  0  0  0  0  0  0
   33.4439  -10.1186   66.2594 H   0  0  0  0  0  0  0  0  0  0  0  0
   33.1481  -11.2789   64.7052 H   0  0  0  0  0  0  0  0  0  0  0  0
   39.0178  -15.6482   61.6723 H   0  0  0  0  0  0  0  0  0  0  0  0
   40.7067  -15.7658   60.9181 H   0  0  0  0  0  0  0  0  0  0  0  0
   40.9868  -13.7511   60.9861 H   0  0  0  0  0  0  0  0  0  0  0  0
   32.6012   -9.4002   58.8158 H   0  0  0  0  0  0  0  0  0  0  0  0
   34.9992  -10.4946   64.6506 H   0  0  0  0  0  0  0  0  0  0  0  0
   34.0961   -8.7538   64.9276 H   0  0  0  0  0  0  0  0  0  0  0  0
   32.9412   -5.9320   61.2720 H   0  0  0  0  0  0  0  0  0  0  0  0
  2  1  1  0
  7  4  1  0
 10  3  1  0
 10  5  2  0
 11  6  2  3
 13  2  1  0
 16  9  1  0
 16 15  1  0
 18  6  1  0
 18 13  1  0
 18 14  1  0
 19  9  1  0
 20  5  1  0
 21  7  1  0
 21 19  2  0
 22 20  1  0
 23  4  1  0
 23 16  1  0
 25  2  1  0
 25 14  1  0
 26  3  1  0
 27  1  1  0
 28 10  1  0
 28 15  1  0
 28 22  2  0
 29 12  2  0
 29 15  1  0
 29 17  1  0
 30 14  1  0
 30 24  1  0
 30 27  1  0
 31 11  1  0
 31 19  1  0
 32  8  2  0
 32  9  1  0
 33  7  1  0
 33 26  1  0
 34 17  1  0
 34 23  1  0
  1 35  1  0
  1 36  1  0
  2 37  1  6
  3 38  1  0
  3 39  1  0
  4 40  1  0
  4 41  1  0
  5 42  1  0
  7 43  1  6
  8 44  1  0
  8 45  1  0
  9 46  1  1
 11 47  1  0
 13 48  1  0
 13 49  1  0
 14 50  1  1
 15 51  1  6
 16 52  1  6
 17 53  1  0
 17 54  1  0
 18 55  1  6
 20 56  1  0
 20 57  1  0
 21 58  1  0
 22 59  1  0
 23 60  1  6
 24 61  1  0
 26 62  1  0
 26 63  1  0
 27 64  1  0
 27 65  1  0
 30 66  1  1
 32 67  1  0
 33 68  1  0
 33 69  1  0
 34 70  1  0
M  END
$$$$
1b9v_PMDM_79624
     RDKit          3D

 48 50  0  0  0  0  0  0  0  0999 V2000
   32.3283   -9.7847   61.0665 C   0  0  0  0  0  0  0  0  0  0  0  0
   39.4507  -14.5783   59.3125 C   0  0  0  0  0  0  0  0  0  0  0  0
   40.9879  -14.9244   61.1088 O   0  0  0  0  0  0  0  0  0  0  0  0
   32.9547  -10.5809   64.5304 O   0  0  0  0  0  0  0  0  0  0  0  0
   34.7194  -10.5011   61.3612 C   0  0  2  0  0  0  0  0  0  0  0  0
   33.2539   -9.8950   63.3468 C   0  0  2  0  0  0  0  0  0  0  0  0
   31.1062   -9.6133   60.2402 C   0  0  0  0  0  0  0  0  0  0  0  0
   31.9622   -8.0150   62.6997 N   0  0  0  0  0  0  0  0  0  0  0  0
   32.1091   -9.4599   62.5003 C   0  0  1  0  0  0  0  0  0  0  0  0
   30.7706   -6.3453   63.9083 C   0  0  0  0  0  0  0  0  0  0  0  0
   35.0185  -12.5384   60.1004 O   0  0  0  0  0  0  0  0  0  0  0  0
   30.7681   -5.5456   62.7809 C   0  0  0  0  0  0  0  0  0  0  0  0
   35.4291  -11.8449   61.2693 C   0  0  1  0  0  0  0  0  0  0  0  0
   31.5803   -5.8995   61.7148 C   0  0  0  0  0  0  0  0  0  0  0  0
   31.2107   -9.3284   59.0482 O   0  0  0  0  0  0  0  0  0  0  0  0
   38.5902  -12.3131   60.6152 N   0  0  0  0  0  0  0  0  0  0  0  0
   38.3830  -12.4521   59.3224 C   0  0  0  0  0  0  0  0  0  0  0  0
   32.2924   -7.0890   61.7823 C   0  0  0  0  0  0  0  0  0  0  0  0
   39.8994  -14.2740   60.5931 C   0  0  0  0  0  0  0  0  0  0  0  0
   30.0015   -9.7535   60.8100 O   0  0  0  0  0  0  0  0  0  0  0  0
   31.4176   -7.5612   63.8603 C   0  0  0  0  0  0  0  0  0  0  0  0
   39.2690  -13.2428   61.2827 C   0  0  0  0  0  0  0  0  0  0  0  0
   34.6427  -10.0080   62.8012 C   0  0  2  0  0  0  0  0  0  0  0  0
   35.1108   -8.6508   62.7650 O   0  0  0  0  0  0  0  0  0  0  0  0
   33.4486  -10.3387   60.5812 C   0  0  0  0  0  0  0  0  0  0  0  0
   38.7961  -13.5723   58.6156 C   0  0  0  0  0  0  0  0  0  0  0  0
   39.6078  -15.5734   58.8709 H   0  0  0  0  0  0  0  0  0  0  0  0
   41.3077  -14.7081   62.0204 H   0  0  0  0  0  0  0  0  0  0  0  0
   33.1996  -10.0194   65.3081 H   0  0  0  0  0  0  0  0  0  0  0  0
   35.3761   -9.8149   60.8064 H   0  0  0  0  0  0  0  0  0  0  0  0
   33.4593   -8.8664   63.6781 H   0  0  0  0  0  0  0  0  0  0  0  0
   31.1924   -9.9932   62.7923 H   0  0  0  0  0  0  0  0  0  0  0  0
   30.2648   -6.0168   64.8282 H   0  0  0  0  0  0  0  0  0  0  0  0
   34.5316  -13.3608   60.3585 H   0  0  0  0  0  0  0  0  0  0  0  0
   30.1350   -4.6474   62.7308 H   0  0  0  0  0  0  0  0  0  0  0  0
   35.1982  -12.1157   62.3101 H   0  0  0  0  0  0  0  0  0  0  0  0
   31.6591   -5.2493   60.8311 H   0  0  0  0  0  0  0  0  0  0  0  0
   37.2944  -12.3852   59.1790 H   0  0  0  0  0  0  0  0  0  0  0  0
   39.0348  -11.6704   58.9052 H   0  0  0  0  0  0  0  0  0  0  0  0
   33.3435   -6.8209   61.9646 H   0  0  0  0  0  0  0  0  0  0  0  0
   32.0570   -7.5814   60.8272 H   0  0  0  0  0  0  0  0  0  0  0  0
   29.1623   -9.6477   60.2956 H   0  0  0  0  0  0  0  0  0  0  0  0
   31.4945   -8.1721   64.7718 H   0  0  0  0  0  0  0  0  0  0  0  0
   39.3318  -13.1962   62.3799 H   0  0  0  0  0  0  0  0  0  0  0  0
   35.2070  -10.7208   63.4204 H   0  0  0  0  0  0  0  0  0  0  0  0
   35.2260   -8.3167   63.6898 H   0  0  0  0  0  0  0  0  0  0  0  0
   33.4349  -10.6981   59.5417 H   0  0  0  0  0  0  0  0  0  0  0  0
   38.6103  -13.6605   57.5350 H   0  0  0  0  0  0  0  0  0  0  0  0
  6  4  1  0
  7  1  1  0
  9  1  1  0
  9  6  1  0
  9  8  1  0
 12 10  1  0
 13  5  1  0
 13 11  1  0
 14 12  2  0
 15  7  2  0
 16 13  1  0
 17 16  1  0
 18  8  1  0
 18 14  1  0
 19  2  1  0
 19  3  1  0
 20  7  1  0
 21  8  1  0
 21 10  2  0
 22 16  1  0
 22 19  2  0
 23  5  1  0
 23  6  1  0
 24 23  1  0
 25  1  2  0
 25  5  1  0
 26  2  2  0
 26 17  1  0
  2 27  1  0
  3 28  1  0
  4 29  1  0
  5 30  1  6
  6 31  1  1
  9 32  1  1
 10 33  1  0
 11 34  1  0
 12 35  1  0
 13 36  1  1
 14 37  1  0
 17 38  1  0
 17 39  1  0
 18 40  1  0
 18 41  1  0
 20 42  1  0
 21 43  1  0
 22 44  1  0
 23 45  1  1
 24 46  1  0
 25 47  1  0
 26 48  1  0
M  END
$$$$
1b9v_PMDM_81373
     RDKit          3D

 48 50  0  0  0  0  0  0  0  0999 V2000
   37.2579  -13.1311   60.3064 C   0  0  1  0  0  0  0  0  0  0  0  0
   38.2825  -12.2076   60.5946 N   0  0  0  0  0  0  0  0  0  0  0  0
   33.6403   -9.7793   61.0036 N   0  0  0  0  0  0  0  0  0  0  0  0
   32.7241   -7.6298   61.6575 C   0  0  0  0  0  0  0  0  0  0  0  0
   33.4734   -6.8151   62.7048 C   0  0  1  0  0  0  0  0  0  0  0  0
   34.4652  -10.7815   61.6537 C   0  0  1  0  0  0  0  0  0  0  0  0
   32.8887   -9.0910   62.0571 C   0  0  2  0  0  0  0  0  0  0  0  0
   39.1715  -15.7538   59.0207 O   0  0  0  0  0  0  0  0  0  0  0  0
   39.0373  -14.3691   58.8272 C   0  0  0  0  0  0  0  0  0  0  0  0
   35.1415   -7.3785   64.3887 O   0  0  0  0  0  0  0  0  0  0  0  0
   35.7411  -11.1067   60.8460 C   0  0  0  0  0  0  0  0  0  0  0  0
   39.9524  -13.6148   59.7785 C   0  0  0  0  0  0  0  0  0  0  0  0
   35.8866  -12.6400   60.7783 C   0  0  1  0  0  0  0  0  0  0  0  0
   37.5701  -13.9380   59.0352 C   0  0  0  0  0  0  0  0  0  0  0  0
   32.6209   -6.4373   63.7853 O   0  0  0  0  0  0  0  0  0  0  0  0
   33.2915   -7.3477   60.4121 O   0  0  0  0  0  0  0  0  0  0  0  0
   34.7944  -10.1627   62.9168 N   0  0  0  0  0  0  0  0  0  0  0  0
   33.8260   -9.1281   63.2475 C   0  0  1  0  0  0  0  0  0  0  0  0
   40.9474  -14.1296   60.2477 O   0  0  0  0  0  0  0  0  0  0  0  0
   39.4650  -14.1150   57.5226 O   0  0  0  0  0  0  0  0  0  0  0  0
   32.9183  -10.0647   59.8361 O   0  0  0  0  0  0  0  0  0  0  0  0
   34.9043  -13.1132   59.8617 O   0  0  0  0  0  0  0  0  0  0  0  0
   34.5516   -7.7782   63.1604 C   0  0  1  0  0  0  0  0  0  0  0  0
   39.5679  -12.4178   60.0850 N   0  0  0  0  0  0  0  0  0  0  0  0
   31.3609   -7.2564   61.5875 O   0  0  0  0  0  0  0  0  0  0  0  0
   31.6486   -9.7333   62.2929 O   0  0  0  0  0  0  0  0  0  0  0  0
   37.1890  -14.0323   60.9333 H   0  0  0  0  0  0  0  0  0  0  0  0
   37.9675  -11.2924   60.2425 H   0  0  0  0  0  0  0  0  0  0  0  0
   33.8697   -5.8654   62.3163 H   0  0  0  0  0  0  0  0  0  0  0  0
   33.9487  -11.7473   61.7561 H   0  0  0  0  0  0  0  0  0  0  0  0
   39.1906  -15.9511   59.9906 H   0  0  0  0  0  0  0  0  0  0  0  0
   34.6102   -7.7385   65.1425 H   0  0  0  0  0  0  0  0  0  0  0  0
   35.6541  -10.6951   59.8296 H   0  0  0  0  0  0  0  0  0  0  0  0
   36.6227  -10.6610   61.3299 H   0  0  0  0  0  0  0  0  0  0  0  0
   35.7608  -13.0249   61.8011 H   0  0  0  0  0  0  0  0  0  0  0  0
   36.9557  -14.8501   59.0608 H   0  0  0  0  0  0  0  0  0  0  0  0
   37.3493  -13.2566   58.2004 H   0  0  0  0  0  0  0  0  0  0  0  0
   33.0698   -6.6362   64.6449 H   0  0  0  0  0  0  0  0  0  0  0  0
   34.1704   -6.9107   60.5413 H   0  0  0  0  0  0  0  0  0  0  0  0
   34.7899  -10.8796   63.6564 H   0  0  0  0  0  0  0  0  0  0  0  0
   33.3514   -9.3043   64.2241 H   0  0  0  0  0  0  0  0  0  0  0  0
   40.3159  -13.6095   57.5468 H   0  0  0  0  0  0  0  0  0  0  0  0
   32.0256  -10.4176   60.0782 H   0  0  0  0  0  0  0  0  0  0  0  0
   34.1356  -13.4835   60.3638 H   0  0  0  0  0  0  0  0  0  0  0  0
   35.4065   -7.8199   62.4695 H   0  0  0  0  0  0  0  0  0  0  0  0
   40.2075  -11.6211   59.9539 H   0  0  0  0  0  0  0  0  0  0  0  0
   30.9985   -7.1571   62.5034 H   0  0  0  0  0  0  0  0  0  0  0  0
   31.4977   -9.8115   63.2682 H   0  0  0  0  0  0  0  0  0  0  0  0
  2  1  1  0
  5  4  1  0
  6  3  1  0
  7  3  1  0
  7  4  1  0
  9  8  1  0
 11  6  1  0
 12  9  1  0
 13  1  1  0
 13 11  1  0
 14  1  1  0
 14  9  1  0
 15  5  1  0
 16  4  1  0
 17  6  1  0
 18  7  1  0
 18 17  1  0
 19 12  2  0
 20  9  1  0
 21  3  1  0
 22 13  1  0
 23  5  1  0
 23 10  1  0
 23 18  1  0
 24  2  1  0
 24 12  1  0
 25  4  1  0
  7 26  1  1
  1 27  1  1
  2 28  1  0
  5 29  1  6
  6 30  1  1
  8 31  1  0
 10 32  1  0
 11 33  1  0
 11 34  1  0
 13 35  1  1
 14 36  1  0
 14 37  1  0
 15 38  1  0
 16 39  1  0
 17 40  1  0
 18 41  1  1
 20 42  1  0
 21 43  1  0
 22 44  1  0
 23 45  1  6
 24 46  1  0
 25 47  1  0
 26 48  1  0
M  END
$$$$
1b9v_PMDM_83844
     RDKit          3D

 50 51  0  0  0  0  0  0  0  0999 V2000
   30.9722   -9.8732   61.3671 O   0  0  0  0  0  0  0  0  0  0  0  0
   37.7945  -12.5819   60.3153 N   0  0  0  0  0  0  0  0  0  0  0  0
   41.8159  -16.2463   59.9309 F   0  0  0  0  0  0  0  0  0  0  0  0
   32.2834   -8.8693   59.9729 O   0  0  0  0  0  0  0  0  0  0  0  0
   31.8130   -8.9819   61.1097 C   0  0  0  0  0  0  0  0  0  0  0  0
   36.4113  -12.4302   60.7273 C   0  0  2  0  0  0  0  0  0  0  0  0
   33.3643   -8.1386   62.9319 C   0  0  0  0  0  0  0  0  0  0  0  0
   35.5327  -12.5607   59.5041 C   0  0  0  0  0  0  0  0  0  0  0  0
   39.9921  -15.4394   58.8455 N   0  0  0  0  0  0  0  0  0  0  0  0
   33.2575   -5.7822   63.3944 C   0  0  0  0  0  0  0  0  0  0  0  0
   31.9762   -5.7402   62.8859 C   0  0  0  0  0  0  0  0  0  0  0  0
   40.8351  -14.3573   60.8170 C   0  0  0  0  0  0  0  0  0  0  0  0
   39.2393  -13.2504   58.6622 N   0  0  0  0  0  0  0  0  0  0  0  0
   36.2080  -11.1071   61.4605 C   0  0  0  0  0  0  0  0  0  0  0  0
   33.0869  -10.0408   64.3477 O   0  0  0  0  0  0  0  0  0  0  0  0
   32.1882   -8.0149   62.1783 C   0  0  0  0  0  0  0  0  0  0  0  0
   39.9446  -13.3511   60.9193 C   0  0  0  0  0  0  0  0  0  0  0  0
   34.7786  -10.6146   61.2755 C   0  0  0  0  0  0  0  0  0  0  0  0
   33.8698   -9.4915   63.3574 C   0  0  0  0  0  0  0  0  0  0  0  0
   35.0136   -9.4247   64.1074 O   0  0  0  0  0  0  0  0  0  0  0  0
   31.3822   -6.9049   62.4203 C   0  0  0  0  0  0  0  0  0  0  0  0
   39.0126  -12.9907   59.9432 C   0  0  0  0  0  0  0  0  0  0  0  0
   33.9627   -6.9769   63.4163 C   0  0  0  0  0  0  0  0  0  0  0  0
   40.8647  -15.3246   59.8394 C   0  0  0  0  0  0  0  0  0  0  0  0
   39.4483  -14.4581   58.1887 C   0  0  0  0  0  0  0  0  0  0  0  0
   34.0344  -10.4828   62.2512 C   0  0  0  0  0  0  0  0  0  0  0  0
   38.0075  -11.5746   60.2866 H   0  0  0  0  0  0  0  0  0  0  0  0
   32.9477   -8.1611   59.7800 H   0  0  0  0  0  0  0  0  0  0  0  0
   36.1328  -13.2187   61.4419 H   0  0  0  0  0  0  0  0  0  0  0  0
   34.4895  -12.7156   59.8168 H   0  0  0  0  0  0  0  0  0  0  0  0
   35.6027  -11.6423   58.9027 H   0  0  0  0  0  0  0  0  0  0  0  0
   35.8666  -13.4191   58.9027 H   0  0  0  0  0  0  0  0  0  0  0  0
   39.7210  -16.3939   58.5693 H   0  0  0  0  0  0  0  0  0  0  0  0
   33.7223   -4.8646   63.7843 H   0  0  0  0  0  0  0  0  0  0  0  0
   31.4274   -4.7876   62.8495 H   0  0  0  0  0  0  0  0  0  0  0  0
   41.6148  -14.4103   61.5911 H   0  0  0  0  0  0  0  0  0  0  0  0
   36.4059  -11.2523   62.5328 H   0  0  0  0  0  0  0  0  0  0  0  0
   36.9006  -10.3590   61.0475 H   0  0  0  0  0  0  0  0  0  0  0  0
   33.4489   -9.7868   65.2335 H   0  0  0  0  0  0  0  0  0  0  0  0
   39.3519  -13.5775   61.8179 H   0  0  0  0  0  0  0  0  0  0  0  0
   40.6231  -12.4869   60.8668 H   0  0  0  0  0  0  0  0  0  0  0  0
   34.8440   -9.6286   60.7923 H   0  0  0  0  0  0  0  0  0  0  0  0
   34.3051  -11.4298   60.7087 H   0  0  0  0  0  0  0  0  0  0  0  0
   34.7789   -9.4384   65.0691 H   0  0  0  0  0  0  0  0  0  0  0  0
   30.2971   -6.9505   62.2459 H   0  0  0  0  0  0  0  0  0  0  0  0
   34.9880   -7.0070   63.8136 H   0  0  0  0  0  0  0  0  0  0  0  0
   40.0797  -14.3173   57.2990 H   0  0  0  0  0  0  0  0  0  0  0  0
   38.4125  -14.8215   58.1181 H   0  0  0  0  0  0  0  0  0  0  0  0
   33.0358  -10.4905   61.7899 H   0  0  0  0  0  0  0  0  0  0  0  0
   34.5820  -11.2080   62.8711 H   0  0  0  0  0  0  0  0  0  0  0  0
  5  1  2  0
  5  4  1  0
  6  2  1  0
  8  6  1  0
 11 10  2  0
 14  6  1  0
 16  5  1  0
 16  7  1  0
 17 12  1  0
 18 14  1  0
 19  7  1  0
 19 15  1  0
 20 19  1  0
 21 11  1  0
 21 16  2  0
 22  2  1  0
 22 13  2  0
 22 17  1  0
 23  7  2  0
 23 10  1  0
 24  3  1  0
 24  9  1  0
 24 12  2  0
 25  9  1  0
 25 13  1  0
 26 18  1  0
 26 19  1  0
  2 27  1  0
  4 28  1  0
  6 29  1  1
  8 30  1  0
  8 31  1  0
  8 32  1  0
  9 33  1  0
 10 34  1  0
 11 35  1  0
 12 36  1  0
 14 37  1  0
 14 38  1  0
 15 39  1  0
 17 40  1  0
 17 41  1  0
 18 42  1  0
 18 43  1  0
 20 44  1  0
 21 45  1  0
 23 46  1  0
 25 47  1  0
 25 48  1  0
 26 49  1  0
 26 50  1  0
M  END
$$$$
1b9v_PMDM_84597
     RDKit          3D

 45 47  0  0  0  0  0  0  0  0999 V2000
   33.3692   -7.6671   63.8566 C   0  0  2  0  0  0  0  0  0  0  0  0
   34.0759   -9.7232   61.9507 C   0  0  1  0  0  0  0  0  0  0  0  0
   34.8103   -9.7344   63.2677 C   0  0  2  0  0  0  0  0  0  0  0  0
   40.3350  -14.7322   60.1993 C   0  0  0  0  0  0  0  0  0  0  0  0
   37.5011  -12.6192   59.8473 C   0  0  0  0  0  0  0  0  0  0  0  0
   39.5944  -13.6010   60.8869 C   0  0  0  0  0  0  0  0  0  0  0  0
   38.8098  -12.7640   59.9993 C   0  0  0  0  0  0  0  0  0  0  0  0
   35.6768   -7.5411   63.1333 O   0  0  0  0  0  0  0  0  0  0  0  0
   33.1099   -7.5810   61.0199 C   0  0  0  0  0  0  0  0  0  0  0  0
   34.4020  -10.7323   60.9919 N   0  0  0  0  0  0  0  0  0  0  0  0
   31.3484   -7.3024   62.6536 C   0  0  0  0  0  0  0  0  0  0  0  0
   32.4372   -6.5483   61.9595 C   0  0  1  0  0  0  0  0  0  0  0  0
   32.8333   -8.9049   61.7711 C   0  0  2  0  0  0  0  0  0  0  0  0
   35.2514   -8.3869   65.1724 O   0  0  0  0  0  0  0  0  0  0  0  0
   35.7689  -11.1178   60.9374 C   0  0  0  0  0  0  0  0  0  0  0  0
   33.4408   -6.3124   63.0951 C   0  0  0  0  0  0  0  0  0  0  0  0
   34.1944  -10.6164   64.1897 O   0  0  0  0  0  0  0  0  0  0  0  0
   36.2319  -12.2428   60.2417 O   0  0  0  0  0  0  0  0  0  0  0  0
   34.7604   -8.3168   63.8552 C   0  0  0  0  0  0  0  0  0  0  0  0
   40.1607  -14.9437   58.9955 O   0  0  0  0  0  0  0  0  0  0  0  0
   41.1797  -15.3879   60.8478 O   0  0  0  0  0  0  0  0  0  0  0  0
   32.2708   -8.4557   63.1162 C   0  0  1  0  0  0  0  0  0  0  0  0
   33.1061   -7.5970   64.9224 H   0  0  0  0  0  0  0  0  0  0  0  0
   34.6494   -8.8822   61.5339 H   0  0  0  0  0  0  0  0  0  0  0  0
   35.8440  -10.0683   63.0943 H   0  0  0  0  0  0  0  0  0  0  0  0
   37.5329  -12.0415   58.9117 H   0  0  0  0  0  0  0  0  0  0  0  0
   37.3716  -13.5333   60.4453 H   0  0  0  0  0  0  0  0  0  0  0  0
   38.9160  -14.0393   61.6336 H   0  0  0  0  0  0  0  0  0  0  0  0
   40.3625  -12.9502   61.3302 H   0  0  0  0  0  0  0  0  0  0  0  0
   39.1566  -13.0536   58.9964 H   0  0  0  0  0  0  0  0  0  0  0  0
   38.9795  -11.8186   60.5354 H   0  0  0  0  0  0  0  0  0  0  0  0
   36.2598   -7.0476   63.7632 H   0  0  0  0  0  0  0  0  0  0  0  0
   32.6454   -7.5798   60.0228 H   0  0  0  0  0  0  0  0  0  0  0  0
   34.1757   -7.3871   60.8290 H   0  0  0  0  0  0  0  0  0  0  0  0
   30.9041   -6.7441   63.4908 H   0  0  0  0  0  0  0  0  0  0  0  0
   30.4512   -7.5623   62.0727 H   0  0  0  0  0  0  0  0  0  0  0  0
   32.1160   -5.6416   61.4260 H   0  0  0  0  0  0  0  0  0  0  0  0
   32.1437   -9.5566   61.2145 H   0  0  0  0  0  0  0  0  0  0  0  0
   34.5018   -8.2799   65.8101 H   0  0  0  0  0  0  0  0  0  0  0  0
   36.5047  -10.4984   61.4712 H   0  0  0  0  0  0  0  0  0  0  0  0
   33.1323   -5.4738   63.7366 H   0  0  0  0  0  0  0  0  0  0  0  0
   34.4508   -6.0424   62.7530 H   0  0  0  0  0  0  0  0  0  0  0  0
   34.3987  -10.3238   65.1132 H   0  0  0  0  0  0  0  0  0  0  0  0
   41.6711  -16.1291   60.4128 H   0  0  0  0  0  0  0  0  0  0  0  0
   31.8556   -9.2793   63.7156 H   0  0  0  0  0  0  0  0  0  0  0  0
  3  2  1  0
  6  4  1  0
  7  5  1  0
  7  6  1  0
 10  2  1  0
 12  9  1  0
 12 11  1  0
 13  2  1  0
 13  9  1  0
 15 10  2  3
 16  1  1  0
 16 12  1  0
 17  3  1  0
 18  5  1  0
 18 15  1  0
 19  1  1  0
 19  3  1  0
 19  8  1  0
 19 14  1  0
 20  4  2  0
 21  4  1  0
 22  1  1  0
 22 11  1  0
 22 13  1  0
  1 23  1  1
  2 24  1  6
  3 25  1  6
  5 26  1  0
  5 27  1  0
  6 28  1  0
  6 29  1  0
  7 30  1  0
  7 31  1  0
  8 32  1  0
  9 33  1  0
  9 34  1  0
 11 35  1  0
 11 36  1  0
 12 37  1  6
 13 38  1  6
 14 39  1  0
 15 40  1  0
 16 41  1  0
 16 42  1  0
 17 43  1  0
 21 44  1  0
 22 45  1  1
M  END
$$$$
1b9v_PMDM_88520
     RDKit          3D

 35 36  0  0  0  0  0  0  0  0999 V2000
   32.5725   -9.0012   61.7485 C   0  0  2  0  0  0  0  0  0  0  0  0
   33.8684   -8.8992   63.7772 C   0  0  0  0  0  0  0  0  0  0  0  0
   34.0651   -7.1438   62.0109 C   0  0  0  0  0  0  0  0  0  0  0  0
   30.4470  -10.0507   61.5948 O   0  0  0  0  0  0  0  0  0  0  0  0
   32.6492   -7.4767   61.5242 C   0  0  0  0  0  0  0  0  0  0  0  0
   34.6224   -8.4990   62.5001 C   0  0  2  0  0  0  0  0  0  0  0  0
   31.4576   -9.6593   60.9390 C   0  0  0  0  0  0  0  0  0  0  0  0
   34.3713  -10.8277   61.2007 C   0  0  0  0  0  0  0  0  0  0  0  0
   39.4252  -12.6334   60.7382 O   0  0  0  0  0  0  0  0  0  0  0  0
   35.8095  -11.0887   61.1585 N   0  0  0  0  0  0  0  0  0  0  0  0
   31.6142   -9.7491   59.7040 O   0  0  0  0  0  0  0  0  0  0  0  0
   36.4466  -11.5406   60.0769 C   0  0  0  0  0  0  0  0  0  0  0  0
   32.4633   -9.2575   63.2643 C   0  0  0  0  0  0  0  0  0  0  0  0
   37.3115  -12.5468   59.9551 N   0  0  0  0  0  0  0  0  0  0  0  0
   38.6129  -12.9373   59.8578 C   0  0  0  0  0  0  0  0  0  0  0  0
   38.9520  -13.5026   58.7886 O   0  0  0  0  0  0  0  0  0  0  0  0
   34.0133   -9.3549   61.3961 C   0  0  1  0  0  0  0  0  0  0  0  0
   34.3440   -9.7657   64.2599 H   0  0  0  0  0  0  0  0  0  0  0  0
   33.8583   -8.1038   64.5369 H   0  0  0  0  0  0  0  0  0  0  0  0
   34.6768   -6.7436   61.1889 H   0  0  0  0  0  0  0  0  0  0  0  0
   34.0717   -6.3752   62.7978 H   0  0  0  0  0  0  0  0  0  0  0  0
   32.5240   -7.2240   60.4610 H   0  0  0  0  0  0  0  0  0  0  0  0
   31.8610   -6.9150   62.0470 H   0  0  0  0  0  0  0  0  0  0  0  0
   35.7062   -8.5467   62.6818 H   0  0  0  0  0  0  0  0  0  0  0  0
   33.9298  -11.1683   60.2525 H   0  0  0  0  0  0  0  0  0  0  0  0
   33.9743  -11.3704   62.0713 H   0  0  0  0  0  0  0  0  0  0  0  0
   36.2642  -10.1966   61.4002 H   0  0  0  0  0  0  0  0  0  0  0  0
   30.9133  -10.1696   59.1454 H   0  0  0  0  0  0  0  0  0  0  0  0
   35.6389  -11.7930   59.3741 H   0  0  0  0  0  0  0  0  0  0  0  0
   37.1660  -10.7148   59.9741 H   0  0  0  0  0  0  0  0  0  0  0  0
   31.6990   -8.6112   63.7206 H   0  0  0  0  0  0  0  0  0  0  0  0
   32.1613  -10.2864   63.5096 H   0  0  0  0  0  0  0  0  0  0  0  0
   36.7483  -13.4084   59.9183 H   0  0  0  0  0  0  0  0  0  0  0  0
   38.2679  -13.7285   58.1095 H   0  0  0  0  0  0  0  0  0  0  0  0
   34.3932   -9.1470   60.3849 H   0  0  0  0  0  0  0  0  0  0  0  0
  5  1  1  0
  5  3  1  0
  6  2  1  0
  6  3  1  0
  1  7  1  6
  7  4  2  0
 10  8  1  0
 11  7  1  0
 12 10  1  0
 13  1  1  0
 13  2  1  0
 14 12  1  0
 15  9  2  0
 15 14  1  0
 16 15  1  0
 17  1  1  0
 17  6  1  0
 17  8  1  0
  2 18  1  0
  2 19  1  0
  3 20  1  0
  3 21  1  0
  5 22  1  0
  5 23  1  0
  6 24  1  1
  8 25  1  0
  8 26  1  0
 10 27  1  0
 11 28  1  0
 12 29  1  0
 12 30  1  0
 13 31  1  0
 13 32  1  0
 14 33  1  0
 16 34  1  0
 17 35  1  6
M  END
$$$$
1b9v_PMDM_94697
     RDKit          3D

 42 44  0  0  0  0  0  0  0  0999 V2000
   32.5851   -6.2000   62.0088 C   0  0  0  0  0  0  0  0  0  0  0  0
   39.9344  -14.3471   59.4170 C   0  0  0  0  0  0  0  0  0  0  0  0
   34.7792   -6.8184   62.6766 O   0  0  0  0  0  0  0  0  0  0  0  0
   34.8388  -10.3939   61.4337 O   0  0  0  0  0  0  0  0  0  0  0  0
   40.1362  -13.2851   57.3168 O   0  0  0  0  0  0  0  0  0  0  0  0
   39.6261  -15.5771   58.9476 O   0  0  0  0  0  0  0  0  0  0  0  0
   38.5423  -12.3357   60.4707 C   0  0  0  0  0  0  0  0  0  0  0  0
   33.6131   -7.1284   62.0339 C   0  0  1  0  0  0  0  0  0  0  0  0
   34.2269   -9.4925   62.3358 C   0  0  1  0  0  0  0  0  0  0  0  0
   30.7495   -7.6951   62.6893 C   0  0  0  0  0  0  0  0  0  0  0  0
   39.6649  -13.2518   58.5954 C   0  0  0  0  0  0  0  0  0  0  0  0
   38.8966  -12.2309   59.1245 C   0  0  0  0  0  0  0  0  0  0  0  0
   37.1901  -12.2309   60.7451 O   0  0  0  0  0  0  0  0  0  0  0  0
   33.4897   -8.4335   61.5950 C   0  0  1  0  0  0  0  0  0  0  0  0
   32.1962   -8.8814   61.0702 C   0  0  0  0  0  0  0  0  0  0  0  0
   39.3767  -13.0470   61.3330 C   0  0  0  0  0  0  0  0  0  0  0  0
   31.2616   -6.5202   62.3130 C   0  0  0  0  0  0  0  0  0  0  0  0
   30.1549   -9.8402   61.8202 O   0  0  0  0  0  0  0  0  0  0  0  0
   40.1451  -14.0882   60.7617 C   0  0  0  0  0  0  0  0  0  0  0  0
   31.2409   -9.0357   62.2374 C   0  0  2  0  0  0  0  0  0  0  0  0
   31.8935   -9.7793   63.3870 C   0  0  0  0  0  0  0  0  0  0  0  0
   33.3247  -10.2205   63.2910 C   0  0  0  0  0  0  0  0  0  0  0  0
   32.8236   -5.1613   61.7362 H   0  0  0  0  0  0  0  0  0  0  0  0
   34.6366   -6.8563   63.6555 H   0  0  0  0  0  0  0  0  0  0  0  0
   39.9639  -12.5254   56.7058 H   0  0  0  0  0  0  0  0  0  0  0  0
   39.8032  -16.3775   59.5027 H   0  0  0  0  0  0  0  0  0  0  0  0
   33.4476   -6.7686   61.0077 H   0  0  0  0  0  0  0  0  0  0  0  0
   35.0147   -9.0055   62.9292 H   0  0  0  0  0  0  0  0  0  0  0  0
   30.8274   -7.7099   63.7864 H   0  0  0  0  0  0  0  0  0  0  0  0
   29.7777   -7.6590   62.1751 H   0  0  0  0  0  0  0  0  0  0  0  0
   38.5788  -11.3744   58.5118 H   0  0  0  0  0  0  0  0  0  0  0  0
   34.0843   -8.2872   60.6812 H   0  0  0  0  0  0  0  0  0  0  0  0
   31.8029   -8.1365   60.3628 H   0  0  0  0  0  0  0  0  0  0  0  0
   32.3107   -9.8399   60.5428 H   0  0  0  0  0  0  0  0  0  0  0  0
   39.4344  -12.8097   62.4055 H   0  0  0  0  0  0  0  0  0  0  0  0
   30.5418   -5.6923   62.2319 H   0  0  0  0  0  0  0  0  0  0  0  0
   29.6803  -10.1918   62.6147 H   0  0  0  0  0  0  0  0  0  0  0  0
   40.8723  -14.6626   61.3544 H   0  0  0  0  0  0  0  0  0  0  0  0
   31.8238   -9.1234   64.2673 H   0  0  0  0  0  0  0  0  0  0  0  0
   31.3415  -10.7304   63.4130 H   0  0  0  0  0  0  0  0  0  0  0  0
   33.3208  -11.2796   62.9938 H   0  0  0  0  0  0  0  0  0  0  0  0
   33.7452  -10.0034   64.2840 H   0  0  0  0  0  0  0  0  0  0  0  0
  6  2  1  0
  8  1  1  0
  8  3  1  0
  9  4  1  0
 11  2  2  0
 11  5  1  0
 12  7  2  0
 12 11  1  0
 13  4  1  0
 13  7  1  0
 14  8  1  0
 14  9  1  0
 15 14  1  0
 16  7  1  0
 17  1  2  0
 17 10  1  0
 19  2  1  0
 19 16  2  0
 20 10  1  0
 20 15  1  0
 20 18  1  6
 21 20  1  0
 22  9  1  0
 22 21  1  0
  1 23  1  0
  3 24  1  0
  5 25  1  0
  6 26  1  0
  8 27  1  6
  9 28  1  1
 10 29  1  0
 10 30  1  0
 12 31  1  0
 14 32  1  6
 15 33  1  0
 15 34  1  0
 16 35  1  0
 17 36  1  0
 18 37  1  0
 19 38  1  0
 21 39  1  0
 21 40  1  0
 22 41  1  0
 22 42  1  0
M  END
$$$$
1b9v_PMDM_96722
     RDKit          3D

 39 41  0  0  0  0  0  0  0  0999 V2000
   35.7184   -9.1249   61.9802 N   0  0  0  0  0  0  0  0  0  0  0  0
   38.8363  -13.0206   59.7874 C   0  0  0  0  0  0  0  0  0  0  0  0
   39.0982  -13.0606   61.2545 C   0  0  0  0  0  0  0  0  0  0  0  0
   32.9985   -9.3541   62.2159 C   0  0  1  0  0  0  0  0  0  0  0  0
   33.6364   -8.1877   62.5648 C   0  0  0  0  0  0  0  0  0  0  0  0
   37.4114  -12.5201   59.6444 C   0  0  0  0  0  0  0  0  0  0  0  0
   40.0661  -13.6515   61.7192 O   0  0  0  0  0  0  0  0  0  0  0  0
   35.0115   -8.1327   62.5271 C   0  0  0  0  0  0  0  0  0  0  0  0
   30.8310   -9.8267   61.2239 O   0  0  0  0  0  0  0  0  0  0  0  0
   37.8760  -12.6093   62.0092 C   0  0  0  0  0  0  0  0  0  0  0  0
   32.6199   -7.1497   62.9015 C   0  0  2  0  0  0  0  0  0  0  0  0
   31.3758   -7.6360   62.1536 C   0  0  0  0  0  0  0  0  0  0  0  0
   30.9933   -9.6229   63.4936 O   0  0  0  0  0  0  0  0  0  0  0  0
   31.5165   -9.1669   62.2653 C   0  0  0  0  0  0  0  0  0  0  0  0
   37.0005  -11.9235   60.9734 C   0  0  1  0  0  0  0  0  0  0  0  0
   33.7043  -10.4196   61.7138 C   0  0  0  0  0  0  0  0  0  0  0  0
   35.0671  -10.2592   61.7724 C   0  0  2  0  0  0  0  0  0  0  0  0
   32.9899   -5.7026   62.7449 C   0  0  0  0  0  0  0  0  0  0  0  0
   36.7125   -9.0144   61.7343 H   0  0  0  0  0  0  0  0  0  0  0  0
   39.5369  -12.3336   59.2903 H   0  0  0  0  0  0  0  0  0  0  0  0
   38.9711  -14.0078   59.3214 H   0  0  0  0  0  0  0  0  0  0  0  0
   33.0679  -10.3741   62.6218 H   0  0  0  0  0  0  0  0  0  0  0  0
   37.3603  -11.7534   58.8572 H   0  0  0  0  0  0  0  0  0  0  0  0
   36.7384  -13.3446   59.3664 H   0  0  0  0  0  0  0  0  0  0  0  0
   35.5333   -7.2625   62.9519 H   0  0  0  0  0  0  0  0  0  0  0  0
   30.1742  -10.4589   61.6098 H   0  0  0  0  0  0  0  0  0  0  0  0
   37.3523  -13.4719   62.4470 H   0  0  0  0  0  0  0  0  0  0  0  0
   38.1312  -11.9377   62.8422 H   0  0  0  0  0  0  0  0  0  0  0  0
   32.4668   -7.0831   63.9888 H   0  0  0  0  0  0  0  0  0  0  0  0
   30.4538   -7.2824   62.6383 H   0  0  0  0  0  0  0  0  0  0  0  0
   31.3078   -7.2700   61.1185 H   0  0  0  0  0  0  0  0  0  0  0  0
   31.4835   -9.1956   64.2401 H   0  0  0  0  0  0  0  0  0  0  0  0
   36.2422  -12.7114   61.0927 H   0  0  0  0  0  0  0  0  0  0  0  0
   33.4356  -11.3165   62.2911 H   0  0  0  0  0  0  0  0  0  0  0  0
   33.4377  -10.5078   60.6503 H   0  0  0  0  0  0  0  0  0  0  0  0
   34.2821  -10.6719   62.4231 H   0  0  0  0  0  0  0  0  0  0  0  0
   33.1070   -5.2445   63.7381 H   0  0  0  0  0  0  0  0  0  0  0  0
   33.9370   -5.6242   62.1909 H   0  0  0  0  0  0  0  0  0  0  0  0
   32.1967   -5.1792   62.1909 H   0  0  0  0  0  0  0  0  0  0  0  0
  3  2  1  0
  5  4  1  0
  6  2  1  0
  7  3  2  0
  8  1  1  0
  8  5  2  0
 10  3  1  0
 11  5  1  0
 12 11  1  0
 14  4  1  0
 14  9  1  0
 14 12  1  0
 14 13  1  0
 15  6  1  0
 15 10  1  0
 16  4  1  0
 17  1  1  0
 17 15  1  0
 17 16  1  0
 18 11  1  0
  1 19  1  0
  2 20  1  0
  2 21  1  0
  4 22  1  1
  6 23  1  0
  6 24  1  0
  8 25  1  0
  9 26  1  0
 10 27  1  0
 10 28  1  0
 11 29  1  1
 12 30  1  0
 12 31  1  0
 13 32  1  0
 15 33  1  6
 16 34  1  0
 16 35  1  0
 17 36  1  1
 18 37  1  0
 18 38  1  0
 18 39  1  0
M  END
$$$$
1b9v_PMDM_98476
     RDKit          3D

 62 64  0  0  0  0  0  0  0  0999 V2000
   39.6098  -14.2996   61.7616 N   0  0  0  0  0  0  0  0  0  0  0  0
   35.3536  -11.1687   62.0241 N   0  0  0  0  0  0  0  0  0  0  0  0
   29.5944   -9.8805   66.2156 C   0  0  0  0  0  0  0  0  0  0  0  0
   37.6665  -13.2055   61.0318 C   0  0  1  0  0  0  0  0  0  0  0  0
   31.4836   -6.6704   63.2751 C   0  0  2  0  0  0  0  0  0  0  0  0
   31.2300   -8.6795   64.8623 C   0  0  1  0  0  0  0  0  0  0  0  0
   34.7639  -12.2565   60.1295 O   0  0  0  0  0  0  0  0  0  0  0  0
   38.6058  -13.4164   62.0380 C   0  0  0  0  0  0  0  0  0  0  0  0
   33.5742   -9.2869   61.3591 S   0  0  0  0  0  4  0  0  0  0  0  0
   36.4094  -13.1452   61.2324 C   0  0  0  0  0  0  0  0  0  0  0  0
   40.7467  -15.5291   60.2944 O   0  0  0  0  0  0  0  0  0  0  0  0
   32.1339   -8.2526   61.5614 C   0  0  2  0  0  0  0  0  0  0  0  0
   35.4720  -12.2604   61.1717 C   0  0  0  0  0  0  0  0  0  0  0  0
   38.2603  -13.0507   59.7749 C   0  0  0  0  0  0  0  0  0  0  0  0
   34.1092  -10.5856   62.5347 C   0  0  2  0  0  0  0  0  0  0  0  0
   30.8717   -8.0314   63.5287 C   0  0  2  0  0  0  0  0  0  0  0  0
   38.3014  -16.1148   58.8320 O   0  0  0  0  0  0  0  0  0  0  0  0
   34.3279   -9.9307   63.9083 C   0  0  0  0  0  0  0  0  0  0  0  0
   32.3473   -6.8349   62.0260 C   0  0  0  0  0  0  0  0  0  0  0  0
   30.0598   -8.6630   65.6739 O   0  0  0  0  0  0  0  0  0  0  0  0
   31.1834   -8.8687   62.4221 O   0  0  0  0  0  0  0  0  0  0  0  0
   38.9205  -14.9652   58.2889 C   0  0  0  0  0  0  0  0  0  0  0  0
   33.6594  -11.2306   65.8069 O   0  0  0  0  0  0  0  0  0  0  0  0
   33.2269  -10.0017   60.1434 O   0  0  0  0  0  0  0  0  0  0  0  0
   40.0122  -14.4816   60.4686 C   0  0  0  0  0  0  0  0  0  0  0  0
   34.6742   -8.3561   61.3304 O   0  0  0  0  0  0  0  0  0  0  0  0
   39.1788  -14.0383   59.4387 C   0  0  2  0  0  0  0  0  0  0  0  0
   33.3757  -10.0276   65.0893 C   0  0  2  0  0  0  0  0  0  0  0  0
   31.8813  -10.0565   64.7184 C   0  0  0  0  0  0  0  0  0  0  0  0
   32.2693   -6.2209   64.3833 O   0  0  0  0  0  0  0  0  0  0  0  0
   40.0612  -14.8256   62.5235 H   0  0  0  0  0  0  0  0  0  0  0  0
   36.2310  -10.7233   62.3285 H   0  0  0  0  0  0  0  0  0  0  0  0
   29.6156   -9.8250   67.3140 H   0  0  0  0  0  0  0  0  0  0  0  0
   28.5635  -10.0620   65.8775 H   0  0  0  0  0  0  0  0  0  0  0  0
   30.2414  -10.7034   65.8775 H   0  0  0  0  0  0  0  0  0  0  0  0
   37.5895  -14.2917   60.8760 H   0  0  0  0  0  0  0  0  0  0  0  0
   30.7022   -5.9083   63.1384 H   0  0  0  0  0  0  0  0  0  0  0  0
   32.0200   -8.0990   65.3612 H   0  0  0  0  0  0  0  0  0  0  0  0
   38.0689  -13.7878   62.9233 H   0  0  0  0  0  0  0  0  0  0  0  0
   39.1038  -12.4456   62.1780 H   0  0  0  0  0  0  0  0  0  0  0  0
   36.0323  -13.9243   60.5536 H   0  0  0  0  0  0  0  0  0  0  0  0
   36.5194  -13.0524   62.3229 H   0  0  0  0  0  0  0  0  0  0  0  0
   31.7712   -8.1596   60.5271 H   0  0  0  0  0  0  0  0  0  0  0  0
   37.4629  -13.0527   59.0171 H   0  0  0  0  0  0  0  0  0  0  0  0
   38.8215  -12.1054   59.8118 H   0  0  0  0  0  0  0  0  0  0  0  0
   33.3558  -11.3803   62.6389 H   0  0  0  0  0  0  0  0  0  0  0  0
   29.7850   -7.8865   63.6190 H   0  0  0  0  0  0  0  0  0  0  0  0
   38.3269  -16.0675   59.8205 H   0  0  0  0  0  0  0  0  0  0  0  0
   35.2861  -10.3297   64.2725 H   0  0  0  0  0  0  0  0  0  0  0  0
   34.2006   -8.8711   63.6416 H   0  0  0  0  0  0  0  0  0  0  0  0
   32.0325   -6.1252   61.2467 H   0  0  0  0  0  0  0  0  0  0  0  0
   33.4078   -6.6343   62.2384 H   0  0  0  0  0  0  0  0  0  0  0  0
   39.8676  -15.2383   57.8006 H   0  0  0  0  0  0  0  0  0  0  0  0
   38.2815  -14.4898   57.5302 H   0  0  0  0  0  0  0  0  0  0  0  0
   33.6173  -11.0522   66.7798 H   0  0  0  0  0  0  0  0  0  0  0  0
   32.8066  -10.8668   60.3779 H   0  0  0  0  0  0  0  0  0  0  0  0
   34.9402   -8.1310   62.2570 H   0  0  0  0  0  0  0  0  0  0  0  0
   39.8471  -13.4026   58.8393 H   0  0  0  0  0  0  0  0  0  0  0  0
   33.5424   -9.1148   65.6801 H   0  0  0  0  0  0  0  0  0  0  0  0
   31.3641  -10.7654   65.3817 H   0  0  0  0  0  0  0  0  0  0  0  0
   31.7977  -10.3644   63.6657 H   0  0  0  0  0  0  0  0  0  0  0  0
   31.8230   -6.4762   65.2293 H   0  0  0  0  0  0  0  0  0  0  0  0
  8  1  1  0
  8  4  1  0
 10  4  1  0
 12  9  1  0
 13  2  1  0
 13  7  2  0
 13 10  1  0
 14  4  1  0
 15  2  1  0
 15  9  1  0
 16  5  1  0
 16  6  1  0
 18 15  1  0
 19  5  1  0
 19 12  1  0
 20  3  1  0
 20  6  1  0
 21 12  1  0
 21 16  1  0
 22 17  1  0
 24  9  1  0
 25  1  1  0
 25 11  2  0
 26  9  1  0
 27 14  1  0
 27 22  1  0
 27 25  1  0
 28 18  1  0
 28 23  1  0
 29  6  1  0
 29 28  1  0
 30  5  1  0
  1 31  1  0
  2 32  1  0
  3 33  1  0
  3 34  1  0
  3 35  1  0
  4 36  1  6
  5 37  1  6
  6 38  1  1
  8 39  1  0
  8 40  1  0
 10 41  1  0
 10 42  1  0
 12 43  1  6
 14 44  1  0
 14 45  1  0
 15 46  1  1
 16 47  1  1
 17 48  1  0
 18 49  1  0
 18 50  1  0
 19 51  1  0
 19 52  1  0
 22 53  1  0
 22 54  1  0
 23 55  1  0
 24 56  1  0
 26 57  1  0
 27 58  1  6
 28 59  1  1
 29 60  1  0
 29 61  1  0
 30 62  1  0
M  END
$$$$
1b9v_Pocket2Mol_102671
     RDKit          3D

 79 82  0  0  0  0  0  0  0  0999 V2000
   31.1011   -6.1973   64.7621 O   0  0  0  0  0  0  0  0  0  0  0  0
   31.4292   -6.4817   63.5421 C   0  0  0  0  0  0  0  0  0  0  0  0
   31.0125   -5.9388   62.4908 C   0  0  0  0  0  0  0  0  0  0  0  0
   32.1470   -7.7239   63.5212 N   0  0  0  0  0  0  0  0  0  0  0  0
   33.6248   -7.6312   63.0973 C   0  0  1  0  0  0  0  0  0  0  0  0
   31.7897   -9.0126   63.9484 C   0  0  0  0  0  0  0  0  0  0  0  0
   34.5630   -7.6137   64.1551 C   0  0  0  0  0  0  0  0  0  0  0  0
   32.8452   -9.8115   64.5653 C   0  0  2  0  0  0  0  0  0  0  0  0
   32.5376  -10.8244   65.4132 C   0  0  0  0  0  0  0  0  0  0  0  0
   33.8231   -8.6799   61.9836 C   0  0  0  0  0  0  0  0  0  0  0  0
   35.5518   -6.8566   64.2745 O   0  0  0  0  0  0  0  0  0  0  0  0
   30.6416   -9.3828   63.7360 C   0  0  0  0  0  0  0  0  0  0  0  0
   34.1106   -8.9993   65.1646 C   0  0  1  0  0  0  0  0  0  0  0  0
   35.3287   -9.8449   65.2683 C   0  0  0  0  0  0  0  0  0  0  0  0
   33.5177  -11.4707   66.1483 C   0  0  0  0  0  0  0  0  0  0  0  0
   34.7452  -10.9482   66.2235 N   0  0  0  0  0  0  0  0  0  0  0  0
   33.2794   -8.2886   60.6763 C   0  0  0  0  0  0  0  0  0  0  0  0
   30.0971  -10.6065   63.2150 C   0  0  0  0  0  0  0  0  0  0  0  0
   33.3066  -12.5871   66.8106 C   0  0  0  0  0  0  0  0  0  0  0  0
   32.1986   -9.1124   60.1942 C   0  0  0  0  0  0  0  0  0  0  0  0
   31.9192   -9.2763   59.0189 N   0  0  0  0  0  0  0  0  0  0  0  0
   28.6751  -11.0141   63.3741 C   0  0  2  0  0  0  0  0  0  0  0  0
   27.7035  -10.0669   63.4705 C   0  0  0  0  0  0  0  0  0  0  0  0
   31.7837   -9.8661   61.0742 O   0  0  0  0  0  0  0  0  0  0  0  0
   27.4960   -9.3924   64.5779 O   0  0  0  0  0  0  0  0  0  0  0  0
   26.9713   -8.1377   64.6366 C   0  0  0  0  0  0  0  0  0  0  0  0
   28.4615  -12.0257   64.4034 C   0  0  0  0  0  0  0  0  0  0  0  0
   33.5755  -13.7903   66.2464 O   0  0  0  0  0  0  0  0  0  0  0  0
   33.0263  -12.6671   68.2008 C   0  0  0  0  0  0  0  0  0  0  0  0
   33.7318  -12.0273   69.0379 O   0  0  0  0  0  0  0  0  0  0  0  0
   26.8580   -7.5827   63.6783 O   0  0  0  0  0  0  0  0  0  0  0  0
   33.7818  -12.1112   70.4736 C   0  0  0  0  0  0  0  0  0  0  0  0
   26.3508   -7.7995   65.8332 N   0  0  0  0  0  0  0  0  0  0  0  0
   32.0954  -13.3663   68.5876 O   0  0  0  0  0  0  0  0  0  0  0  0
   34.9552  -12.6269   70.8422 C   0  0  0  0  0  0  0  0  0  0  0  0
   32.9194  -11.5111   71.2352 C   0  0  0  0  0  0  0  0  0  0  0  0
   36.0216  -13.1128   70.0502 O   0  0  0  0  0  0  0  0  0  0  0  0
   31.6654  -10.8458   70.6326 C   0  0  0  0  0  0  0  0  0  0  0  0
   33.0526  -11.5889   72.6284 C   0  0  0  0  0  0  0  0  0  0  0  0
   31.9960  -11.0168   73.4871 C   0  0  0  0  0  0  0  0  0  0  0  0
   35.1637  -12.7471   72.2275 C   0  0  0  0  0  0  0  0  0  0  0  0
   31.0744  -10.2904   72.8233 N   0  0  0  0  0  0  0  0  0  0  0  0
   34.1296  -12.2250   73.2392 C   0  0  0  0  0  0  0  0  0  0  0  0
   30.8444  -10.2418   71.5354 C   0  0  0  0  0  0  0  0  0  0  0  0
   30.3615   -5.0906   62.7493 H   0  0  0  0  0  0  0  0  0  0  0  0
   31.8678   -5.5780   61.9006 H   0  0  0  0  0  0  0  0  0  0  0  0
   30.4428   -6.6717   61.9006 H   0  0  0  0  0  0  0  0  0  0  0  0
   33.8536   -6.6371   62.6857 H   0  0  0  0  0  0  0  0  0  0  0  0
   33.1210  -10.3080   63.6233 H   0  0  0  0  0  0  0  0  0  0  0  0
   31.8221  -10.4144   66.1412 H   0  0  0  0  0  0  0  0  0  0  0  0
   32.1946  -11.6133   64.7277 H   0  0  0  0  0  0  0  0  0  0  0  0
   34.9023   -8.8584   61.8676 H   0  0  0  0  0  0  0  0  0  0  0  0
   33.2705   -9.5780   62.2968 H   0  0  0  0  0  0  0  0  0  0  0  0
   29.8793   -8.6330   63.9942 H   0  0  0  0  0  0  0  0  0  0  0  0
   33.7758   -8.6688   66.1589 H   0  0  0  0  0  0  0  0  0  0  0  0
   35.6354  -10.2556   64.2950 H   0  0  0  0  0  0  0  0  0  0  0  0
   36.2412   -9.3381   65.6153 H   0  0  0  0  0  0  0  0  0  0  0  0
   35.3614  -11.2982   66.9710 H   0  0  0  0  0  0  0  0  0  0  0  0
   32.9115   -7.2550   60.7553 H   0  0  0  0  0  0  0  0  0  0  0  0
   34.1009   -8.4059   59.9542 H   0  0  0  0  0  0  0  0  0  0  0  0
   30.2804  -10.5776   62.1308 H   0  0  0  0  0  0  0  0  0  0  0  0
   30.6019  -11.3494   63.8501 H   0  0  0  0  0  0  0  0  0  0  0  0
   31.1290   -9.8829   58.7571 H   0  0  0  0  0  0  0  0  0  0  0  0
   32.4734   -8.8082   58.2877 H   0  0  0  0  0  0  0  0  0  0  0  0
   28.5319  -11.4309   62.3663 H   0  0  0  0  0  0  0  0  0  0  0  0
   27.9225   -9.3210   62.6923 H   0  0  0  0  0  0  0  0  0  0  0  0
   26.7861  -10.6687   63.3916 H   0  0  0  0  0  0  0  0  0  0  0  0
   28.5590  -11.5640   65.3971 H   0  0  0  0  0  0  0  0  0  0  0  0
   27.4535  -12.4523   64.2946 H   0  0  0  0  0  0  0  0  0  0  0  0
   29.2110  -12.8235   64.2946 H   0  0  0  0  0  0  0  0  0  0  0  0
   33.4121  -14.6234   66.7557 H   0  0  0  0  0  0  0  0  0  0  0  0
   25.9309   -6.8662   65.9498 H   0  0  0  0  0  0  0  0  0  0  0  0
   26.3108   -8.4821   66.6035 H   0  0  0  0  0  0  0  0  0  0  0  0
   36.8376  -13.4687   70.4833 H   0  0  0  0  0  0  0  0  0  0  0  0
   31.4503  -10.8583   69.5539 H   0  0  0  0  0  0  0  0  0  0  0  0
   31.9637  -11.1703   74.5759 H   0  0  0  0  0  0  0  0  0  0  0  0
   36.0844  -13.2239   72.5949 H   0  0  0  0  0  0  0  0  0  0  0  0
   34.2303  -12.3417   74.3283 H   0  0  0  0  0  0  0  0  0  0  0  0
   29.9611   -9.6965   71.1716 H   0  0  0  0  0  0  0  0  0  0  0  0
  1  2  2  0
  2  3  1  0
  2  4  1  0
  4  5  1  0
  4  6  1  0
  5  7  1  0
  6  8  1  0
  8  9  1  0
  5 10  1  0
  7 11  2  0
  6 12  2  3
  7 13  1  0
  8 13  1  0
 13 14  1  0
  9 15  1  0
 14 16  1  0
 15 16  1  0
 10 17  1  0
 12 18  1  0
 15 19  2  3
 17 20  1  0
 20 21  1  0
 18 22  1  0
 22 23  1  0
 20 24  2  0
 23 25  1  0
 25 26  1  0
 22 27  1  0
 19 28  1  0
 19 29  1  0
 29 30  1  0
 26 31  2  0
 30 32  1  0
 26 33  1  0
 29 34  2  0
 32 35  2  0
 32 36  1  0
 35 37  1  0
 36 38  2  0
 36 39  1  0
 39 40  2  0
 35 41  1  0
 40 42  1  0
 39 43  1  0
 41 43  2  0
 38 44  1  0
 42 44  2  0
  3 45  1  0
  3 46  1  0
  3 47  1  0
  5 48  1  6
  8 49  1  6
  9 50  1  0
  9 51  1  0
 10 52  1  0
 10 53  1  0
 12 54  1  0
 13 55  1  1
 14 56  1  0
 14 57  1  0
 16 58  1  0
 17 59  1  0
 17 60  1  0
 18 61  1  0
 18 62  1  0
 21 63  1  0
 21 64  1  0
 22 65  1  6
 23 66  1  0
 23 67  1  0
 27 68  1  0
 27 69  1  0
 27 70  1  0
 28 71  1  0
 33 72  1  0
 33 73  1  0
 37 74  1  0
 38 75  1  0
 40 76  1  0
 41 77  1  0
 43 78  1  0
 44 79  1  0
M  END
$$$$
1b9v_Pocket2Mol_104649
     RDKit          3D

 54 56  0  0  0  0  0  0  0  0999 V2000
   31.4456   -5.8697   61.8457 C   0  0  0  0  0  0  0  0  0  0  0  0
   32.2973   -6.6548   61.5081 C   0  0  0  0  0  0  0  0  0  0  0  0
   32.9542   -7.4460   62.4812 C   0  0  0  0  0  0  0  0  0  0  0  0
   30.7825   -5.8142   63.1033 C   0  0  0  0  0  0  0  0  0  0  0  0
   32.4685   -7.4302   63.7849 C   0  0  0  0  0  0  0  0  0  0  0  0
   31.4514   -6.6216   64.1124 C   0  0  0  0  0  0  0  0  0  0  0  0
   34.2575   -8.4355   62.0384 C   0  0  0  0  0  0  0  0  0  0  0  0
   35.3496   -7.7417   62.3098 F   0  0  0  0  0  0  0  0  0  0  0  0
   34.0815   -8.7151   60.7932 F   0  0  0  0  0  0  0  0  0  0  0  0
   34.1961   -9.6711   62.8546 C   0  0  0  0  0  0  0  0  0  0  0  0
   33.6012   -9.4710   64.2956 C   0  0  0  0  0  0  0  0  0  0  0  0
   33.0378   -8.3060   64.7672 N   0  0  0  0  0  0  0  0  0  0  0  0
   33.8679  -10.5131   65.1897 C   0  0  0  0  0  0  0  0  0  0  0  0
   35.0692  -11.0032   65.4172 F   0  0  0  0  0  0  0  0  0  0  0  0
   32.7824  -10.7720   66.2686 C   0  0  1  0  0  0  0  0  0  0  0  0
   31.5888  -11.0335   65.7648 N   0  0  0  0  0  0  0  0  0  0  0  0
   31.2131  -11.6053   64.6499 C   0  0  0  0  0  0  0  0  0  0  0  0
   31.9790  -11.8592   63.7573 O   0  0  0  0  0  0  0  0  0  0  0  0
   29.8392  -11.8893   64.4331 N   0  0  0  0  0  0  0  0  0  0  0  0
   28.7653  -11.4801   65.3006 C   0  0  0  0  0  0  0  0  0  0  0  0
   29.5295  -12.0326   62.9707 C   0  0  1  0  0  0  0  0  0  0  0  0
   28.6208  -13.1933   63.0100 O   0  0  0  0  0  0  0  0  0  0  0  0
   33.2891  -11.6321   67.3234 C   0  0  0  0  0  0  0  0  0  0  0  0
   33.3543  -12.9683   67.0431 O   0  0  0  0  0  0  0  0  0  0  0  0
   33.3798  -11.3378   68.5792 O   0  0  0  0  0  0  0  0  0  0  0  0
   28.7327  -10.6783   62.8091 C   0  0  0  0  0  0  0  0  0  0  0  0
   34.2559  -12.0781   69.4497 C   0  0  0  0  0  0  0  0  0  0  0  0
   34.8298  -11.2143   70.4430 C   0  0  0  0  0  0  0  0  0  0  0  0
   35.5626  -10.2772   70.0571 O   0  0  0  0  0  0  0  0  0  0  0  0
   27.9713  -10.5450   64.1086 C   0  0  2  0  0  0  0  0  0  0  0  0
   28.0665   -9.0994   64.5656 C   0  0  0  0  0  0  0  0  0  0  0  0
   34.7738  -11.4723   71.6690 O   0  0  0  0  0  0  0  0  0  0  0  0
   28.3053   -8.8569   65.6929 O   0  0  0  0  0  0  0  0  0  0  0  0
   28.2873   -8.2663   63.4861 O   0  0  0  0  0  0  0  0  0  0  0  0
   31.1500   -5.1158   61.1012 H   0  0  0  0  0  0  0  0  0  0  0  0
   32.5631   -6.7557   60.4455 H   0  0  0  0  0  0  0  0  0  0  0  0
   29.8702   -5.2290   63.2910 H   0  0  0  0  0  0  0  0  0  0  0  0
   31.1173   -6.5674   65.1590 H   0  0  0  0  0  0  0  0  0  0  0  0
   33.5704  -10.4033   62.3231 H   0  0  0  0  0  0  0  0  0  0  0  0
   35.2341  -10.0096   62.9887 H   0  0  0  0  0  0  0  0  0  0  0  0
   33.0261   -8.0763   65.7712 H   0  0  0  0  0  0  0  0  0  0  0  0
   32.5635   -9.8320   66.7963 H   0  0  0  0  0  0  0  0  0  0  0  0
   30.8071  -10.7298   66.3628 H   0  0  0  0  0  0  0  0  0  0  0  0
   28.1580  -12.3235   65.6610 H   0  0  0  0  0  0  0  0  0  0  0  0
   29.0291  -10.9882   66.2485 H   0  0  0  0  0  0  0  0  0  0  0  0
   30.3078  -12.1736   62.2062 H   0  0  0  0  0  0  0  0  0  0  0  0
   28.4328  -13.4335   63.9518 H   0  0  0  0  0  0  0  0  0  0  0  0
   29.4226   -9.8327   62.6716 H   0  0  0  0  0  0  0  0  0  0  0  0
   28.0723  -10.6778   61.9294 H   0  0  0  0  0  0  0  0  0  0  0  0
   33.6822  -12.8725   69.9494 H   0  0  0  0  0  0  0  0  0  0  0  0
   35.0669  -12.5150   68.8485 H   0  0  0  0  0  0  0  0  0  0  0  0
   26.9284  -10.8656   63.9687 H   0  0  0  0  0  0  0  0  0  0  0  0
   35.1814  -10.8523   72.3244 H   0  0  0  0  0  0  0  0  0  0  0  0
   28.3681   -7.9160   65.9943 H   0  0  0  0  0  0  0  0  0  0  0  0
  1  2  2  0
  2  3  1  0
  1  4  1  0
  3  5  2  0
  4  6  2  0
  5  6  1  0
  3  7  1  0
  7  8  1  0
  7  9  1  0
  7 10  1  0
 10 11  1  0
  5 12  1  0
 11 12  1  0
 11 13  2  3
 13 14  1  0
 13 15  1  0
 15 16  1  0
 16 17  1  0
 17 18  2  0
 17 19  1  0
 19 20  1  0
 19 21  1  0
 21 22  1  0
 15 23  1  0
 23 24  2  0
 23 25  1  0
 21 26  1  0
 25 27  1  0
 27 28  1  0
 28 29  2  0
 20 30  1  0
 26 30  1  0
 30 31  1  0
 28 32  1  0
 31 33  1  0
 31 34  2  0
  1 35  1  0
  2 36  1  0
  4 37  1  0
  6 38  1  0
 10 39  1  0
 10 40  1  0
 12 41  1  0
 15 42  1  1
 16 43  1  0
 20 44  1  0
 20 45  1  0
 21 46  1  6
 22 47  1  0
 26 48  1  0
 26 49  1  0
 27 50  1  0
 27 51  1  0
 30 52  1  6
 32 53  1  0
 33 54  1  0
M  END
$$$$
1b9v_Pocket2Mol_105925
     RDKit          3D

 41 42  0  0  0  0  0  0  0  0999 V2000
   31.3508   -5.7458   63.0501 C   0  0  0  0  0  0  0  0  0  0  0  0
   31.5789   -5.9756   61.9398 C   0  0  0  0  0  0  0  0  0  0  0  0
   32.1037   -7.1991   61.5824 C   0  0  0  0  0  0  0  0  0  0  0  0
   31.4971   -6.6567   64.0165 C   0  0  0  0  0  0  0  0  0  0  0  0
   31.1010   -6.4256   65.4422 O   0  0  0  0  0  0  0  0  0  0  0  0
   32.3754   -7.5080   60.1028 O   0  0  0  0  0  0  0  0  0  0  0  0
   32.3111   -8.2218   62.4514 C   0  0  0  0  0  0  0  0  0  0  0  0
   31.9453   -7.9545   63.8130 C   0  0  0  0  0  0  0  0  0  0  0  0
   32.1169   -8.9296   64.9181 C   0  0  1  0  0  0  0  0  0  0  0  0
   31.0009   -9.6571   65.0652 N   0  0  0  0  0  0  0  0  0  0  0  0
   30.7979  -11.0031   64.5991 C   0  0  0  0  0  0  0  0  0  0  0  0
   31.4406  -11.9852   65.2384 O   0  0  0  0  0  0  0  0  0  0  0  0
   30.0562  -11.3198   63.3926 C   0  0  0  0  0  0  0  0  0  0  0  0
   28.7325  -12.0018   63.6364 C   0  0  0  0  0  0  0  0  0  0  0  0
   28.4548  -13.0408   63.2844 O   0  0  0  0  0  0  0  0  0  0  0  0
   27.7326  -11.1907   64.3157 N   0  0  0  0  0  0  0  0  0  0  0  0
   33.4652   -9.4632   64.9071 C   0  0  2  0  0  0  0  0  0  0  0  0
   34.5190   -8.6650   64.5411 C   0  0  0  0  0  0  0  0  0  0  0  0
   33.7199  -10.7127   64.0524 O   0  0  0  0  0  0  0  0  0  0  0  0
   34.7022   -8.2202   63.2711 C   0  0  0  0  0  0  0  0  0  0  0  0
   35.2980   -8.0423   65.4605 O   0  0  0  0  0  0  0  0  0  0  0  0
   35.2243   -6.8391   63.0954 N   0  0  0  0  0  0  0  0  0  0  0  0
   33.1717   -9.3398   62.0558 C   0  0  0  0  0  0  0  0  0  0  0  0
   34.5750   -9.0822   62.2553 C   0  0  0  0  0  0  0  0  0  0  0  0
   31.0001   -4.7390   63.3208 H   0  0  0  0  0  0  0  0  0  0  0  0
   31.3770   -5.2175   61.1687 H   0  0  0  0  0  0  0  0  0  0  0  0
   31.2339   -7.1397   66.1149 H   0  0  0  0  0  0  0  0  0  0  0  0
   32.7522   -8.3854   59.8414 H   0  0  0  0  0  0  0  0  0  0  0  0
   32.1464   -8.5260   65.9409 H   0  0  0  0  0  0  0  0  0  0  0  0
   30.2146   -9.2106   65.5583 H   0  0  0  0  0  0  0  0  0  0  0  0
   29.8655  -10.3823   62.8498 H   0  0  0  0  0  0  0  0  0  0  0  0
   30.6739  -12.0279   62.8208 H   0  0  0  0  0  0  0  0  0  0  0  0
   26.8025  -11.5835   64.5193 H   0  0  0  0  0  0  0  0  0  0  0  0
   27.9553  -10.2240   64.5928 H   0  0  0  0  0  0  0  0  0  0  0  0
   33.4594   -9.6440   65.9921 H   0  0  0  0  0  0  0  0  0  0  0  0
   33.8784  -11.4905   64.6440 H   0  0  0  0  0  0  0  0  0  0  0  0
   35.3776   -6.4630   62.1488 H   0  0  0  0  0  0  0  0  0  0  0  0
   35.4326   -6.2585   63.9202 H   0  0  0  0  0  0  0  0  0  0  0  0
   32.8916  -10.2222   62.6499 H   0  0  0  0  0  0  0  0  0  0  0  0
   33.0215   -9.4985   60.9777 H   0  0  0  0  0  0  0  0  0  0  0  0
   35.3998   -9.5188   61.6730 H   0  0  0  0  0  0  0  0  0  0  0  0
  1  2  2  0
  2  3  1  0
  1  4  1  0
  4  5  1  0
  3  6  1  0
  3  7  2  0
  4  8  2  0
  7  8  1  0
  8  9  1  0
  9 10  1  0
 10 11  1  0
 11 12  2  0
 11 13  1  0
 13 14  1  0
 14 15  2  0
 14 16  1  0
  9 17  1  0
 17 18  1  0
 17 19  1  0
 18 20  1  0
 18 21  2  0
 20 22  1  0
  7 23  1  0
 20 24  2  3
 23 24  1  0
  1 25  1  0
  2 26  1  0
  5 27  1  0
  6 28  1  0
  9 29  1  1
 10 30  1  0
 13 31  1  0
 13 32  1  0
 16 33  1  0
 16 34  1  0
 17 35  1  1
 19 36  1  0
 22 37  1  0
 22 38  1  0
 23 39  1  0
 23 40  1  0
 24 41  1  0
M  END
$$$$
1b9v_Pocket2Mol_53808
     RDKit          3D

 66 71  0  0  0  0  0  0  0  0999 V2000
   31.7669   -5.8391   61.4426 C   0  0  0  0  0  0  0  0  0  0  0  0
   31.1376   -5.9698   62.5198 C   0  0  0  0  0  0  0  0  0  0  0  0
   32.9227   -6.7201   61.2572 C   0  0  0  0  0  0  0  0  0  0  0  0
   31.2102   -6.7344   63.4930 C   0  0  0  0  0  0  0  0  0  0  0  0
   30.3540   -6.8577   64.7176 O   0  0  0  0  0  0  0  0  0  0  0  0
   32.2267   -7.7638   63.3887 C   0  0  0  0  0  0  0  0  0  0  0  0
   33.1560   -7.6963   62.2271 C   0  0  0  0  0  0  0  0  0  0  0  0
   29.4594   -7.9904   64.7751 C   0  0  2  0  0  0  0  0  0  0  0  0
   34.2860   -8.7195   62.1254 C   0  0  2  0  0  0  0  0  0  0  0  0
   34.4740   -9.3184   63.2842 O   0  0  0  0  0  0  0  0  0  0  0  0
   29.6238   -8.7458   65.8086 C   0  0  0  0  0  0  0  0  0  0  0  0
   29.2216   -8.6331   63.4895 C   0  0  0  0  0  0  0  0  0  0  0  0
   28.0600   -7.0835   65.0415 O   0  0  0  0  0  0  0  0  0  0  0  0
   26.9153   -7.8798   65.0833 C   0  0  1  0  0  0  0  0  0  0  0  0
   33.8850   -8.9164   64.5154 C   0  0  1  0  0  0  0  0  0  0  0  0
   27.9969   -9.4411   63.5964 C   0  0  1  0  0  0  0  0  0  0  0  0
   32.4142   -8.7757   64.4152 C   0  0  0  0  0  0  0  0  0  0  0  0
   28.9787  -10.0589   65.7296 C   0  0  0  0  0  0  0  0  0  0  0  0
   35.3326   -7.8087   61.7325 O   0  0  0  0  0  0  0  0  0  0  0  0
   34.3161   -9.7911   65.7294 C   0  0  0  0  0  0  0  0  0  0  0  0
   27.7913   -9.9822   64.8269 C   0  0  1  0  0  0  0  0  0  0  0  0
   26.8460   -8.4658   63.6108 C   0  0  0  0  0  0  0  0  0  0  0  0
   28.9863  -10.7941   66.7717 O   0  0  0  0  0  0  0  0  0  0  0  0
   26.7468   -9.2592   65.5586 C   0  0  0  0  0  0  0  0  0  0  0  0
   35.4691   -9.9293   65.8662 O   0  0  0  0  0  0  0  0  0  0  0  0
   27.2888  -11.5069   64.6195 C   0  0  0  0  0  0  0  0  0  0  0  0
   27.7744  -11.9417   63.3477 O   0  0  0  0  0  0  0  0  0  0  0  0
   26.6020  -12.1340   65.1159 O   0  0  0  0  0  0  0  0  0  0  0  0
   33.3632  -10.5471   66.2086 O   0  0  0  0  0  0  0  0  0  0  0  0
   33.4630  -11.9340   66.5434 C   0  0  0  0  0  0  0  0  0  0  0  0
   33.1160  -12.2467   67.8194 C   0  0  1  0  0  0  0  0  0  0  0  0
   33.7541  -11.5973   68.7509 O   0  0  0  0  0  0  0  0  0  0  0  0
   31.6742  -12.0021   68.0095 C   0  0  2  0  0  0  0  0  0  0  0  0
   31.4317  -11.1669   68.9903 C   0  0  2  0  0  0  0  0  0  0  0  0
   32.8842  -11.0187   69.6668 C   0  0  2  0  0  0  0  0  0  0  0  0
   33.0705   -9.7255   70.3198 O   0  0  0  0  0  0  0  0  0  0  0  0
   30.5714  -11.6826   70.1028 O   0  0  0  0  0  0  0  0  0  0  0  0
   30.9579  -13.2575   68.0889 O   0  0  0  0  0  0  0  0  0  0  0  0
   31.4679   -5.1046   60.6803 H   0  0  0  0  0  0  0  0  0  0  0  0
   30.3298   -5.2308   62.6262 H   0  0  0  0  0  0  0  0  0  0  0  0
   33.5836   -6.6159   60.3841 H   0  0  0  0  0  0  0  0  0  0  0  0
   34.1559   -9.5745   61.4456 H   0  0  0  0  0  0  0  0  0  0  0  0
   30.7036   -8.9047   65.9459 H   0  0  0  0  0  0  0  0  0  0  0  0
   29.1469   -8.2211   66.6496 H   0  0  0  0  0  0  0  0  0  0  0  0
   29.0956   -7.8683   62.7090 H   0  0  0  0  0  0  0  0  0  0  0  0
   30.0755   -9.2728   63.2220 H   0  0  0  0  0  0  0  0  0  0  0  0
   26.2965   -7.1903   65.6763 H   0  0  0  0  0  0  0  0  0  0  0  0
   34.2894   -7.9142   64.7205 H   0  0  0  0  0  0  0  0  0  0  0  0
   28.0741  -10.1959   62.8000 H   0  0  0  0  0  0  0  0  0  0  0  0
   31.9869   -8.4446   65.3732 H   0  0  0  0  0  0  0  0  0  0  0  0
   31.9139   -9.7244   64.1708 H   0  0  0  0  0  0  0  0  0  0  0  0
   35.7640   -7.4333   62.5407 H   0  0  0  0  0  0  0  0  0  0  0  0
   25.8888   -8.9769   63.4304 H   0  0  0  0  0  0  0  0  0  0  0  0
   26.9120   -7.6962   62.8277 H   0  0  0  0  0  0  0  0  0  0  0  0
   26.9047   -9.3264   66.6451 H   0  0  0  0  0  0  0  0  0  0  0  0
   25.7368   -9.6597   65.3869 H   0  0  0  0  0  0  0  0  0  0  0  0
   27.5741  -12.8569   63.0279 H   0  0  0  0  0  0  0  0  0  0  0  0
   32.8054  -12.4964   65.8642 H   0  0  0  0  0  0  0  0  0  0  0  0
   34.5263  -12.1970   66.4426 H   0  0  0  0  0  0  0  0  0  0  0  0
   33.3912  -13.3058   67.9319 H   0  0  0  0  0  0  0  0  0  0  0  0
   31.2826  -11.4815   67.1232 H   0  0  0  0  0  0  0  0  0  0  0  0
   30.9219  -10.2836   68.5782 H   0  0  0  0  0  0  0  0  0  0  0  0
   33.1024  -11.5705   70.5931 H   0  0  0  0  0  0  0  0  0  0  0  0
   33.0531   -9.8464   71.3022 H   0  0  0  0  0  0  0  0  0  0  0  0
   30.9765  -11.4398   70.9729 H   0  0  0  0  0  0  0  0  0  0  0  0
   30.8200  -13.4992   69.0390 H   0  0  0  0  0  0  0  0  0  0  0  0
  1  2  2  0
  1  3  1  0
  2  4  1  0
  4  5  1  0
  4  6  2  0
  3  7  2  0
  6  7  1  0
  8  5  1  6
  7  9  1  0
  9 10  1  0
  8 11  1  0
  8 12  1  0
  8 13  1  0
 13 14  1  0
 10 15  1  0
 12 16  1  0
  6 17  1  0
 15 17  1  0
 11 18  1  0
  9 19  1  0
 15 20  1  0
 16 21  1  0
 18 21  1  0
 14 22  1  0
 16 22  1  0
 18 23  2  0
 14 24  1  0
 21 24  1  0
 20 25  2  0
 21 26  1  6
 26 27  1  0
 26 28  2  0
 20 29  1  0
 29 30  1  0
 30 31  1  0
 31 32  1  0
 31 33  1  0
 33 34  1  0
 32 35  1  0
 34 35  1  0
 35 36  1  0
 34 37  1  0
 33 38  1  0
  1 39  1  0
  2 40  1  0
  3 41  1  0
  9 42  1  6
 11 43  1  0
 11 44  1  0
 12 45  1  0
 12 46  1  0
 14 47  1  6
 15 48  1  1
 16 49  1  6
 17 50  1  0
 17 51  1  0
 19 52  1  0
 22 53  1  0
 22 54  1  0
 24 55  1  0
 24 56  1  0
 27 57  1  0
 30 58  1  0
 30 59  1  0
 31 60  1  1
 33 61  1  6
 34 62  1  6
 35 63  1  1
 36 64  1  0
 37 65  1  0
 38 66  1  0
M  END
$$$$
1b9v_Pocket2Mol_55610
     RDKit          3D

 59 63  0  0  0  0  0  0  0  0999 V2000
   31.7669   -5.8391   61.4426 C   0  0  0  0  0  0  0  0  0  0  0  0
   31.1376   -5.9698   62.5198 C   0  0  0  0  0  0  0  0  0  0  0  0
   32.8776   -6.7183   61.1918 C   0  0  0  0  0  0  0  0  0  0  0  0
   31.2872   -6.9148   63.5149 C   0  0  0  0  0  0  0  0  0  0  0  0
   33.0847   -7.7407   62.1391 C   0  0  0  0  0  0  0  0  0  0  0  0
   32.2745   -7.8610   63.3101 C   0  0  0  0  0  0  0  0  0  0  0  0
   34.2347   -8.7413   61.8364 C   0  0  0  0  0  0  0  0  0  0  0  0
   30.2891   -7.0031   64.7628 C   0  0  0  0  0  0  0  0  0  0  0  0
   32.6257   -8.9424   64.3006 C   0  0  0  0  0  0  0  0  0  0  0  0
   29.5279   -8.1588   64.7685 N   0  0  0  0  0  0  0  0  0  0  0  0
   33.8865   -8.9159   64.8976 C   0  0  0  0  0  0  0  0  0  0  0  0
   34.7334   -7.9726   64.5636 O   0  0  0  0  0  0  0  0  0  0  0  0
   34.3693  -10.0952   65.5148 C   0  0  0  0  0  0  0  0  0  0  0  0
   28.4786   -8.1979   63.8834 C   0  0  0  0  0  0  0  0  0  0  0  0
   35.3942   -7.2760   65.5123 O   0  0  0  0  0  0  0  0  0  0  0  0
   27.6979   -9.1032   63.7233 C   0  0  0  0  0  0  0  0  0  0  0  0
   35.3111   -7.9579   61.4487 O   0  0  0  0  0  0  0  0  0  0  0  0
   28.1921  -10.5136   63.6407 C   0  0  0  0  0  0  0  0  0  0  0  0
   33.5653  -11.1612   65.8898 C   0  0  0  0  0  0  0  0  0  0  0  0
   31.7157  -10.0545   64.3083 C   0  0  0  0  0  0  0  0  0  0  0  0
   33.8454  -12.2338   66.5950 O   0  0  0  0  0  0  0  0  0  0  0  0
   33.3068  -12.4784   67.8631 C   0  0  1  0  0  0  0  0  0  0  0  0
   32.1431  -11.1399   65.1678 C   0  0  0  0  0  0  0  0  0  0  0  0
   29.5318  -10.6749   63.3334 C   0  0  0  0  0  0  0  0  0  0  0  0
   33.3542  -13.8221   68.2102 O   0  0  0  0  0  0  0  0  0  0  0  0
   27.5778  -11.7627   63.6920 C   0  0  0  0  0  0  0  0  0  0  0  0
   33.8633  -11.6853   68.9269 C   0  0  2  0  0  0  0  0  0  0  0  0
   26.1852  -11.8126   63.6774 O   0  0  0  0  0  0  0  0  0  0  0  0
   33.7744  -12.3858   70.1634 C   0  0  1  0  0  0  0  0  0  0  0  0
   32.9370  -12.0823   71.1421 O   0  0  0  0  0  0  0  0  0  0  0  0
   33.3719  -13.8696   69.6757 C   0  0  0  0  0  0  0  0  0  0  0  0
   28.2186  -12.9042   63.9965 C   0  0  0  0  0  0  0  0  0  0  0  0
   33.3617  -10.3602   69.1747 O   0  0  0  0  0  0  0  0  0  0  0  0
   30.0395  -11.9077   63.1539 C   0  0  0  0  0  0  0  0  0  0  0  0
   29.3446  -12.9110   63.4786 N   0  0  0  0  0  0  0  0  0  0  0  0
   33.5233  -14.9232   70.2205 O   0  0  0  0  0  0  0  0  0  0  0  0
   30.6133   -9.6600   63.3327 O   0  0  0  0  0  0  0  0  0  0  0  0
   31.4771   -5.0724   60.7090 H   0  0  0  0  0  0  0  0  0  0  0  0
   30.3511   -5.2216   62.6976 H   0  0  0  0  0  0  0  0  0  0  0  0
   33.5272   -6.5994   60.3121 H   0  0  0  0  0  0  0  0  0  0  0  0
   34.4859   -9.3227   62.7358 H   0  0  0  0  0  0  0  0  0  0  0  0
   33.9533   -9.4648   61.0571 H   0  0  0  0  0  0  0  0  0  0  0  0
   30.8823   -6.9701   65.6885 H   0  0  0  0  0  0  0  0  0  0  0  0
   29.5946   -6.1533   64.6881 H   0  0  0  0  0  0  0  0  0  0  0  0
   29.7365   -8.9449   65.4006 H   0  0  0  0  0  0  0  0  0  0  0  0
   35.4494  -10.1706   65.7090 H   0  0  0  0  0  0  0  0  0  0  0  0
   28.3347   -7.3081   63.2528 H   0  0  0  0  0  0  0  0  0  0  0  0
   35.1043   -7.5816   66.4082 H   0  0  0  0  0  0  0  0  0  0  0  0
   26.6217   -8.8921   63.6379 H   0  0  0  0  0  0  0  0  0  0  0  0
   35.7783   -7.6179   62.2526 H   0  0  0  0  0  0  0  0  0  0  0  0
   32.2583  -12.1639   67.7550 H   0  0  0  0  0  0  0  0  0  0  0  0
   31.4578  -11.9850   65.3292 H   0  0  0  0  0  0  0  0  0  0  0  0
   34.8820  -11.5297   68.5422 H   0  0  0  0  0  0  0  0  0  0  0  0
   25.7208  -12.6862   63.7129 H   0  0  0  0  0  0  0  0  0  0  0  0
   34.7263  -12.1552   70.6640 H   0  0  0  0  0  0  0  0  0  0  0  0
   33.3772  -12.2418   72.0144 H   0  0  0  0  0  0  0  0  0  0  0  0
   27.8043  -13.7140   64.6150 H   0  0  0  0  0  0  0  0  0  0  0  0
   33.3035  -10.2066   70.1510 H   0  0  0  0  0  0  0  0  0  0  0  0
   31.0460  -12.0400   62.7302 H   0  0  0  0  0  0  0  0  0  0  0  0
  1  2  2  0
  1  3  1  0
  2  4  1  0
  3  5  2  0
  4  6  2  0
  5  6  1  0
  5  7  1  0
  4  8  1  0
  6  9  1  0
  8 10  1  0
  9 11  2  0
 11 12  1  0
 11 13  1  0
 10 14  1  0
 12 15  1  0
 14 16  2  3
  7 17  1  0
 16 18  1  0
 13 19  2  0
  9 20  1  0
 19 21  1  0
 21 22  1  0
 19 23  1  0
 20 23  2  0
 18 24  2  0
 22 25  1  0
 18 26  1  0
 22 27  1  0
 26 28  1  0
 27 29  1  0
 29 30  1  0
 25 31  1  0
 29 31  1  0
 26 32  2  0
 27 33  1  0
 24 34  1  0
 32 35  1  0
 34 35  2  0
 31 36  2  0
 20 37  1  0
 24 37  1  0
  1 38  1  0
  2 39  1  0
  3 40  1  0
  7 41  1  0
  7 42  1  0
  8 43  1  0
  8 44  1  0
 10 45  1  0
 13 46  1  0
 14 47  1  0
 15 48  1  0
 16 49  1  0
 17 50  1  0
 22 51  1  6
 23 52  1  0
 27 53  1  6
 28 54  1  0
 29 55  1  1
 30 56  1  0
 32 57  1  0
 33 58  1  0
 34 59  1  0
M  END
$$$$
1b9v_Pocket2Mol_64864
     RDKit          3D

 70 75  0  0  0  0  0  0  0  0999 V2000
   31.7669   -5.8391   61.4426 C   0  0  0  0  0  0  0  0  0  0  0  0
   31.1376   -5.9698   62.5198 C   0  0  0  0  0  0  0  0  0  0  0  0
   32.8776   -6.7183   61.1918 C   0  0  0  0  0  0  0  0  0  0  0  0
   31.2872   -6.9148   63.5149 C   0  0  0  0  0  0  0  0  0  0  0  0
   33.0847   -7.7407   62.1391 C   0  0  0  0  0  0  0  0  0  0  0  0
   32.2745   -7.8610   63.3101 C   0  0  0  0  0  0  0  0  0  0  0  0
   34.2347   -8.7413   61.8364 C   0  0  0  0  0  0  0  0  0  0  0  0
   30.2891   -7.0031   64.7628 C   0  0  0  0  0  0  0  0  0  0  0  0
   32.6257   -8.9424   64.3006 C   0  0  0  0  0  0  0  0  0  0  0  0
   29.5279   -8.1588   64.7685 N   0  0  0  0  0  0  0  0  0  0  0  0
   33.8865   -8.9159   64.8976 C   0  0  0  0  0  0  0  0  0  0  0  0
   34.7334   -7.9726   64.5636 O   0  0  0  0  0  0  0  0  0  0  0  0
   34.3693  -10.0952   65.5148 C   0  0  0  0  0  0  0  0  0  0  0  0
   28.4786   -8.1979   63.8834 C   0  0  0  0  0  0  0  0  0  0  0  0
   35.3942   -7.2760   65.5123 O   0  0  0  0  0  0  0  0  0  0  0  0
   27.6979   -9.1032   63.7233 C   0  0  0  0  0  0  0  0  0  0  0  0
   35.3111   -7.9579   61.4487 O   0  0  0  0  0  0  0  0  0  0  0  0
   28.1921  -10.5136   63.6407 C   0  0  0  0  0  0  0  0  0  0  0  0
   33.5653  -11.1612   65.8898 C   0  0  0  0  0  0  0  0  0  0  0  0
   31.7157  -10.0545   64.3083 C   0  0  0  0  0  0  0  0  0  0  0  0
   33.8454  -12.2338   66.5950 O   0  0  0  0  0  0  0  0  0  0  0  0
   33.3068  -12.4784   67.8631 C   0  0  1  0  0  0  0  0  0  0  0  0
   32.1431  -11.1399   65.1678 C   0  0  0  0  0  0  0  0  0  0  0  0
   29.5318  -10.6749   63.3334 C   0  0  0  0  0  0  0  0  0  0  0  0
   33.3542  -13.8221   68.2102 O   0  0  0  0  0  0  0  0  0  0  0  0
   27.5778  -11.7627   63.6920 C   0  0  0  0  0  0  0  0  0  0  0  0
   33.8633  -11.6853   68.9269 C   0  0  2  0  0  0  0  0  0  0  0  0
   26.1852  -11.8126   63.6774 O   0  0  0  0  0  0  0  0  0  0  0  0
   33.7744  -12.3858   70.1634 C   0  0  1  0  0  0  0  0  0  0  0  0
   32.9370  -12.0823   71.1421 O   0  0  0  0  0  0  0  0  0  0  0  0
   33.3719  -13.8696   69.6757 C   0  0  1  0  0  0  0  0  0  0  0  0
   33.5880  -10.3271   69.0512 O   0  0  0  0  0  0  0  0  0  0  0  0
   32.1957  -14.4105   70.2760 C   0  0  0  0  0  0  0  0  0  0  0  0
   30.5135  -10.1210   63.9243 O   0  0  0  0  0  0  0  0  0  0  0  0
   31.9291  -14.0667   71.5005 O   0  0  0  0  0  0  0  0  0  0  0  0
   30.2326  -11.9095   62.8530 C   0  0  0  0  0  0  0  0  0  0  0  0
   31.8449  -12.7962   71.6717 C   0  0  0  0  0  0  0  0  0  0  0  0
   28.0968  -12.9202   63.1074 C   0  0  0  0  0  0  0  0  0  0  0  0
   31.2889  -12.3256   72.9163 C   0  0  0  0  0  0  0  0  0  0  0  0
   29.3591  -12.9958   62.7547 C   0  0  0  0  0  0  0  0  0  0  0  0
   30.2836  -11.3911   72.6759 C   0  0  0  0  0  0  0  0  0  0  0  0
   31.4771   -5.0724   60.7090 H   0  0  0  0  0  0  0  0  0  0  0  0
   30.3511   -5.2216   62.6976 H   0  0  0  0  0  0  0  0  0  0  0  0
   33.5272   -6.5994   60.3121 H   0  0  0  0  0  0  0  0  0  0  0  0
   34.4859   -9.3227   62.7358 H   0  0  0  0  0  0  0  0  0  0  0  0
   33.9533   -9.4648   61.0571 H   0  0  0  0  0  0  0  0  0  0  0  0
   30.8823   -6.9701   65.6885 H   0  0  0  0  0  0  0  0  0  0  0  0
   29.5946   -6.1533   64.6881 H   0  0  0  0  0  0  0  0  0  0  0  0
   29.7365   -8.9449   65.4006 H   0  0  0  0  0  0  0  0  0  0  0  0
   35.4494  -10.1706   65.7090 H   0  0  0  0  0  0  0  0  0  0  0  0
   28.3347   -7.3081   63.2528 H   0  0  0  0  0  0  0  0  0  0  0  0
   35.1043   -7.5816   66.4082 H   0  0  0  0  0  0  0  0  0  0  0  0
   26.6217   -8.8921   63.6379 H   0  0  0  0  0  0  0  0  0  0  0  0
   35.7783   -7.6179   62.2526 H   0  0  0  0  0  0  0  0  0  0  0  0
   32.2583  -12.1639   67.7550 H   0  0  0  0  0  0  0  0  0  0  0  0
   31.4578  -11.9850   65.3292 H   0  0  0  0  0  0  0  0  0  0  0  0
   34.9006  -11.5779   68.5768 H   0  0  0  0  0  0  0  0  0  0  0  0
   25.7208  -12.6862   63.7129 H   0  0  0  0  0  0  0  0  0  0  0  0
   34.7263  -12.1552   70.6640 H   0  0  0  0  0  0  0  0  0  0  0  0
   34.1175  -14.5981   70.0269 H   0  0  0  0  0  0  0  0  0  0  0  0
   33.5393  -10.0867   70.0103 H   0  0  0  0  0  0  0  0  0  0  0  0
   31.3402  -14.1053   69.6555 H   0  0  0  0  0  0  0  0  0  0  0  0
   32.3822  -15.4934   70.3259 H   0  0  0  0  0  0  0  0  0  0  0  0
   31.3039  -11.9550   62.6077 H   0  0  0  0  0  0  0  0  0  0  0  0
   27.4362  -13.7836   62.9396 H   0  0  0  0  0  0  0  0  0  0  0  0
   31.6125  -12.6573   73.9139 H   0  0  0  0  0  0  0  0  0  0  0  0
   29.7438  -13.9506   62.3670 H   0  0  0  0  0  0  0  0  0  0  0  0
   29.8880  -11.0234   73.6342 H   0  0  0  0  0  0  0  0  0  0  0  0
   30.6961  -10.5483   72.1019 H   0  0  0  0  0  0  0  0  0  0  0  0
   29.4731  -11.8639   72.1019 H   0  0  0  0  0  0  0  0  0  0  0  0
  1  2  2  0
  1  3  1  0
  2  4  1  0
  3  5  2  0
  4  6  2  0
  5  6  1  0
  5  7  1  0
  4  8  1  0
  6  9  1  0
  8 10  1  0
  9 11  2  0
 11 12  1  0
 11 13  1  0
 10 14  1  0
 12 15  1  0
 14 16  2  3
  7 17  1  0
 16 18  1  0
 13 19  2  0
  9 20  1  0
 19 21  1  0
 21 22  1  0
 19 23  1  0
 20 23  2  0
 18 24  2  0
 22 25  1  0
 18 26  1  0
 22 27  1  0
 26 28  1  0
 27 29  1  0
 29 30  1  0
 25 31  1  0
 29 31  1  0
 27 32  1  0
 31 33  1  0
 20 34  1  0
 24 34  1  0
 33 35  1  0
 24 36  1  0
 30 37  1  0
 35 37  1  0
 26 38  2  0
 37 39  2  3
 36 40  2  0
 38 40  1  0
 39 41  1  0
  1 42  1  0
  2 43  1  0
  3 44  1  0
  7 45  1  0
  7 46  1  0
  8 47  1  0
  8 48  1  0
 10 49  1  0
 13 50  1  0
 14 51  1  0
 15 52  1  0
 16 53  1  0
 17 54  1  0
 22 55  1  6
 23 56  1  0
 27 57  1  6
 28 58  1  0
 29 59  1  1
 31 60  1  6
 32 61  1  0
 33 62  1  0
 33 63  1  0
 36 64  1  0
 38 65  1  0
 39 66  1  0
 40 67  1  0
 41 68  1  0
 41 69  1  0
 41 70  1  0
M  END
$$$$
1b9v_Pocket2Mol_66305
     RDKit          3D

 49 51  0  0  0  0  0  0  0  0999 V2000
   31.2447   -5.7885   61.9268 C   0  0  0  0  0  0  0  0  0  0  0  0
   31.2967   -6.6710   62.8882 C   0  0  0  0  0  0  0  0  0  0  0  0
   32.2684   -7.5638   63.0137 N   0  0  0  0  0  0  0  0  0  0  0  0
   30.1254   -6.7757   63.7572 N   0  0  0  0  0  0  0  0  0  0  0  0
   33.3572   -7.3608   62.1526 C   0  0  0  0  0  0  0  0  0  0  0  0
   34.6603   -8.2109   62.4175 C   0  0  1  0  0  0  0  0  0  0  0  0
   28.9892   -7.2354   63.6002 C   0  0  0  0  0  0  0  0  0  0  0  0
   28.7528   -8.6196   63.6019 C   0  0  0  0  0  0  0  0  0  0  0  0
   29.7945   -9.4616   63.8823 C   0  0  0  0  0  0  0  0  0  0  0  0
   35.5106   -7.4215   63.1311 F   0  0  0  0  0  0  0  0  0  0  0  0
   34.1221   -9.3809   63.1879 C   0  0  0  0  0  0  0  0  0  0  0  0
   33.3571   -6.3642   61.2567 N   0  0  0  0  0  0  0  0  0  0  0  0
   27.5049   -9.1600   63.1735 C   0  0  0  0  0  0  0  0  0  0  0  0
   26.4603   -8.4307   62.9496 O   0  0  0  0  0  0  0  0  0  0  0  0
   27.2799  -10.5719   63.3313 N   0  0  0  0  0  0  0  0  0  0  0  0
   32.3687   -5.7625   61.1011 C   0  0  0  0  0  0  0  0  0  0  0  0
   29.6119  -10.9271   63.9871 N   0  0  0  0  0  0  0  0  0  0  0  0
   28.3233  -11.4293   63.6193 C   0  0  0  0  0  0  0  0  0  0  0  0
   28.2857  -12.7433   63.2472 O   0  0  0  0  0  0  0  0  0  0  0  0
   33.8520   -9.1477   64.6394 C   0  0  0  0  0  0  0  0  0  0  0  0
   32.8565  -10.1656   65.1803 C   0  0  0  0  0  0  0  0  0  0  0  0
   33.2947  -10.8349   66.3495 C   0  0  2  0  0  0  0  0  0  0  0  0
   30.5905  -11.7221   64.4492 C   0  0  0  0  0  0  0  0  0  0  0  0
   30.7600  -11.6167   65.8594 C   0  0  0  0  0  0  0  0  0  0  0  0
   34.4795  -11.5065   66.2647 O   0  0  0  0  0  0  0  0  0  0  0  0
   32.1891  -12.0035   66.3125 C   0  0  0  0  0  0  0  0  0  0  0  0
   32.3834  -13.0334   67.0260 C   0  0  0  0  0  0  0  0  0  0  0  0
   30.3839   -5.1196   61.7800 H   0  0  0  0  0  0  0  0  0  0  0  0
   30.2798   -6.3842   64.6973 H   0  0  0  0  0  0  0  0  0  0  0  0
   35.2264   -8.5531   61.5386 H   0  0  0  0  0  0  0  0  0  0  0  0
   28.3693   -6.8134   64.4050 H   0  0  0  0  0  0  0  0  0  0  0  0
   28.7623   -6.9572   62.5604 H   0  0  0  0  0  0  0  0  0  0  0  0
   30.7977   -9.0368   64.0344 H   0  0  0  0  0  0  0  0  0  0  0  0
   33.1771   -9.6875   62.7158 H   0  0  0  0  0  0  0  0  0  0  0  0
   34.9135  -10.1442   63.1548 H   0  0  0  0  0  0  0  0  0  0  0  0
   26.3269  -10.9488   63.2280 H   0  0  0  0  0  0  0  0  0  0  0  0
   32.3189   -5.1109   60.2162 H   0  0  0  0  0  0  0  0  0  0  0  0
   34.7950   -9.2344   65.1991 H   0  0  0  0  0  0  0  0  0  0  0  0
   33.4238   -8.1415   64.7587 H   0  0  0  0  0  0  0  0  0  0  0  0
   31.9178   -9.6415   65.4130 H   0  0  0  0  0  0  0  0  0  0  0  0
   32.7314  -10.9330   64.4022 H   0  0  0  0  0  0  0  0  0  0  0  0
   33.4137  -10.1418   67.1954 H   0  0  0  0  0  0  0  0  0  0  0  0
   30.3444  -12.7650   64.2007 H   0  0  0  0  0  0  0  0  0  0  0  0
   31.5308  -11.4039   63.9753 H   0  0  0  0  0  0  0  0  0  0  0  0
   30.5624  -10.5779   66.1623 H   0  0  0  0  0  0  0  0  0  0  0  0
   30.0565  -12.3159   66.3350 H   0  0  0  0  0  0  0  0  0  0  0  0
   34.8165  -11.6975   67.1758 H   0  0  0  0  0  0  0  0  0  0  0  0
   31.6473  -13.8508   67.0239 H   0  0  0  0  0  0  0  0  0  0  0  0
   33.2881  -13.1095   67.6471 H   0  0  0  0  0  0  0  0  0  0  0  0
  1  2  2  0
  2  3  1  0
  2  4  1  0
  3  5  2  0
  5  6  1  0
  4  7  1  0
  7  8  1  0
  8  9  2  0
  6 10  1  0
  6 11  1  0
  5 12  1  0
  8 13  1  0
 13 14  2  0
 13 15  1  0
  1 16  1  0
 12 16  2  0
  9 17  1  0
 15 18  1  0
 17 18  1  0
 18 19  2  0
 11 20  1  0
 20 21  1  0
 21 22  1  0
 17 23  1  0
 23 24  1  0
 22 25  1  0
 22 26  1  0
 24 26  1  0
 26 27  2  0
  1 28  1  0
  4 29  1  0
  6 30  1  6
  7 31  1  0
  7 32  1  0
  9 33  1  0
 11 34  1  0
 11 35  1  0
 15 36  1  0
 16 37  1  0
 20 38  1  0
 20 39  1  0
 21 40  1  0
 21 41  1  0
 22 42  1  1
 23 43  1  0
 23 44  1  0
 24 45  1  0
 24 46  1  0
 25 47  1  0
 27 48  1  0
 27 49  1  0
M  END
$$$$
1b9v_Pocket2Mol_74867
     RDKit          3D

 55 56  0  0  0  0  0  0  0  0999 V2000
   34.9136   -6.3837   61.0632 F   0  0  0  0  0  0  0  0  0  0  0  0
   33.8245   -6.8455   61.7780 C   0  0  0  0  0  0  0  0  0  0  0  0
   32.7571   -6.9692   61.3100 C   0  0  0  0  0  0  0  0  0  0  0  0
   31.9969   -6.0289   60.8357 O   0  0  0  0  0  0  0  0  0  0  0  0
   32.0144   -8.1865   61.5344 C   0  0  0  0  0  0  0  0  0  0  0  0
   32.5977   -9.2979   62.2439 C   0  0  0  0  0  0  0  0  0  0  0  0
   31.8933  -10.4639   62.4999 C   0  0  1  0  0  0  0  0  0  0  0  0
   32.0171  -10.9182   63.8715 O   0  0  0  0  0  0  0  0  0  0  0  0
   30.4573  -10.6078   62.4584 C   0  0  0  0  0  0  0  0  0  0  0  0
   30.8308  -11.2762   64.4751 C   0  0  1  0  0  0  0  0  0  0  0  0
   29.9670  -11.5526   63.3463 C   0  0  1  0  0  0  0  0  0  0  0  0
   30.9756  -12.4479   65.3800 O   0  0  0  0  0  0  0  0  0  0  0  0
   34.5434   -8.0591   62.2573 C   0  0  0  0  0  0  0  0  0  0  0  0
   33.9004   -9.1866   62.6297 C   0  0  0  0  0  0  0  0  0  0  0  0
   31.2540   -5.2079   61.6220 C   0  0  0  0  0  0  0  0  0  0  0  0
   30.6953  -12.2577   66.7323 C   0  0  0  0  0  0  0  0  0  0  0  0
   28.5876  -11.5701   63.5306 N   0  0  0  0  0  0  0  0  0  0  0  0
   27.8450  -10.4736   63.7636 C   0  0  0  0  0  0  0  0  0  0  0  0
   27.8047  -12.7276   63.6025 C   0  0  0  0  0  0  0  0  0  0  0  0
   28.3029   -9.3122   63.9002 O   0  0  0  0  0  0  0  0  0  0  0  0
   31.8417  -12.8118   67.4658 C   0  0  2  0  0  0  0  0  0  0  0  0
   33.0716  -12.6873   66.8236 C   0  0  1  0  0  0  0  0  0  0  0  0
   33.6764  -11.4234   66.8947 C   0  0  0  0  0  0  0  0  0  0  0  0
   31.5919  -14.2271   67.7343 O   0  0  0  0  0  0  0  0  0  0  0  0
   34.3687  -10.8307   65.6930 C   0  0  0  0  0  0  0  0  0  0  0  0
   34.3663   -9.3883   65.5921 N   0  0  0  0  0  0  0  0  0  0  0  0
   26.5498  -10.4793   63.7358 N   0  0  0  0  0  0  0  0  0  0  0  0
   34.1000  -13.5333   67.3412 O   0  0  0  0  0  0  0  0  0  0  0  0
   33.7872  -10.8241   68.0878 O   0  0  0  0  0  0  0  0  0  0  0  0
   30.9843   -8.2677   61.1571 H   0  0  0  0  0  0  0  0  0  0  0  0
   32.3634  -10.9659   61.6414 H   0  0  0  0  0  0  0  0  0  0  0  0
   30.0035   -9.6354   62.7001 H   0  0  0  0  0  0  0  0  0  0  0  0
   30.1974  -10.9517   61.4464 H   0  0  0  0  0  0  0  0  0  0  0  0
   30.4368  -10.4927   65.1391 H   0  0  0  0  0  0  0  0  0  0  0  0
   30.0168  -12.6005   63.0155 H   0  0  0  0  0  0  0  0  0  0  0  0
   35.6419   -8.0358   62.3099 H   0  0  0  0  0  0  0  0  0  0  0  0
   34.4011   -9.9733   63.2132 H   0  0  0  0  0  0  0  0  0  0  0  0
   31.4563   -5.4315   62.6799 H   0  0  0  0  0  0  0  0  0  0  0  0
   31.5179   -4.1610   61.4115 H   0  0  0  0  0  0  0  0  0  0  0  0
   30.1860   -5.3662   61.4115 H   0  0  0  0  0  0  0  0  0  0  0  0
   30.5829  -11.1858   66.9522 H   0  0  0  0  0  0  0  0  0  0  0  0
   29.7555  -12.7505   67.0220 H   0  0  0  0  0  0  0  0  0  0  0  0
   27.6294  -12.9868   64.6571 H   0  0  0  0  0  0  0  0  0  0  0  0
   26.8407  -12.5498   63.1035 H   0  0  0  0  0  0  0  0  0  0  0  0
   28.3286  -13.5562   63.1035 H   0  0  0  0  0  0  0  0  0  0  0  0
   31.9225  -12.2166   68.3873 H   0  0  0  0  0  0  0  0  0  0  0  0
   32.7580  -12.9440   65.8010 H   0  0  0  0  0  0  0  0  0  0  0  0
   31.5653  -14.3777   68.7124 H   0  0  0  0  0  0  0  0  0  0  0  0
   35.4173  -11.1623   65.7144 H   0  0  0  0  0  0  0  0  0  0  0  0
   33.7949  -11.1838   64.8235 H   0  0  0  0  0  0  0  0  0  0  0  0
   34.3656   -8.9780   66.5369 H   0  0  0  0  0  0  0  0  0  0  0  0
   35.2068   -9.0783   65.0838 H   0  0  0  0  0  0  0  0  0  0  0  0
   26.0269   -9.6116   63.9215 H   0  0  0  0  0  0  0  0  0  0  0  0
   26.0430  -11.3516   63.5280 H   0  0  0  0  0  0  0  0  0  0  0  0
   34.0764  -13.5139   68.3307 H   0  0  0  0  0  0  0  0  0  0  0  0
  1  2  1  0
  2  3  2  0
  3  4  1  0
  3  5  1  0
  5  6  2  0
  6  7  1  0
  7  8  1  0
  7  9  1  0
  8 10  1  0
  9 11  1  0
 10 11  1  0
 10 12  1  0
  2 13  1  0
  6 14  1  0
 13 14  2  0
  4 15  1  0
 12 16  1  0
 11 17  1  0
 17 18  1  0
 17 19  1  0
 18 20  2  0
 16 21  1  0
 21 22  1  0
 22 23  1  0
 21 24  1  0
 23 25  1  0
 25 26  1  0
 18 27  1  0
 22 28  1  0
 23 29  2  0
  5 30  1  0
  7 31  1  6
  9 32  1  0
  9 33  1  0
 10 34  1  1
 11 35  1  6
 13 36  1  0
 14 37  1  0
 15 38  1  0
 15 39  1  0
 15 40  1  0
 16 41  1  0
 16 42  1  0
 19 43  1  0
 19 44  1  0
 19 45  1  0
 21 46  1  1
 22 47  1  6
 24 48  1  0
 25 49  1  0
 25 50  1  0
 26 51  1  0
 26 52  1  0
 27 53  1  0
 27 54  1  0
 28 55  1  0
M  END
$$$$
1b9v_Pocket2Mol_88014
     RDKit          3D

 81 89  0  0  0  0  0  0  0  0999 V2000
   31.7669   -5.8391   61.4426 C   0  0  0  0  0  0  0  0  0  0  0  0
   31.1376   -5.9698   62.5198 C   0  0  0  0  0  0  0  0  0  0  0  0
   32.9227   -6.7201   61.2572 C   0  0  0  0  0  0  0  0  0  0  0  0
   31.2102   -6.7344   63.4930 C   0  0  0  0  0  0  0  0  0  0  0  0
   30.3540   -6.8577   64.7176 O   0  0  0  0  0  0  0  0  0  0  0  0
   32.2267   -7.7638   63.3887 C   0  0  0  0  0  0  0  0  0  0  0  0
   33.1560   -7.6963   62.2271 C   0  0  0  0  0  0  0  0  0  0  0  0
   29.4594   -7.9904   64.7751 C   0  0  2  0  0  0  0  0  0  0  0  0
   34.2860   -8.7195   62.1254 C   0  0  2  0  0  0  0  0  0  0  0  0
   34.4740   -9.3184   63.2842 O   0  0  0  0  0  0  0  0  0  0  0  0
   29.6238   -8.7458   65.8086 C   0  0  0  0  0  0  0  0  0  0  0  0
   29.2216   -8.6331   63.4895 C   0  0  0  0  0  0  0  0  0  0  0  0
   28.0600   -7.0835   65.0415 O   0  0  0  0  0  0  0  0  0  0  0  0
   26.9153   -7.8798   65.0833 C   0  0  1  0  0  0  0  0  0  0  0  0
   33.8850   -8.9164   64.5154 C   0  0  1  0  0  0  0  0  0  0  0  0
   27.9969   -9.4411   63.5964 C   0  0  1  0  0  0  0  0  0  0  0  0
   32.4142   -8.7757   64.4152 C   0  0  0  0  0  0  0  0  0  0  0  0
   28.9787  -10.0589   65.7296 C   0  0  0  0  0  0  0  0  0  0  0  0
   35.3326   -7.8087   61.7325 O   0  0  0  0  0  0  0  0  0  0  0  0
   34.3161   -9.7911   65.7294 C   0  0  0  0  0  0  0  0  0  0  0  0
   27.7913   -9.9822   64.8269 C   0  0  1  0  0  0  0  0  0  0  0  0
   26.8460   -8.4658   63.6108 C   0  0  0  0  0  0  0  0  0  0  0  0
   28.9863  -10.7941   66.7717 O   0  0  0  0  0  0  0  0  0  0  0  0
   26.7468   -9.2592   65.5586 C   0  0  0  0  0  0  0  0  0  0  0  0
   35.4691   -9.9293   65.8662 O   0  0  0  0  0  0  0  0  0  0  0  0
   27.2888  -11.5069   64.6195 C   0  0  0  0  0  0  0  0  0  0  0  0
   27.7744  -11.9417   63.3477 O   0  0  0  0  0  0  0  0  0  0  0  0
   26.6020  -12.1340   65.1159 O   0  0  0  0  0  0  0  0  0  0  0  0
   33.3632  -10.5471   66.2086 O   0  0  0  0  0  0  0  0  0  0  0  0
   33.4630  -11.9340   66.5434 C   0  0  0  0  0  0  0  0  0  0  0  0
   33.1160  -12.2467   67.8194 C   0  0  1  0  0  0  0  0  0  0  0  0
   33.7541  -11.5973   68.7509 O   0  0  0  0  0  0  0  0  0  0  0  0
   31.6742  -12.0021   68.0095 C   0  0  0  0  0  0  0  0  0  0  0  0
   31.4317  -11.1669   68.9903 C   0  0  2  0  0  0  0  0  0  0  0  0
   32.8285  -11.2894   69.7750 C   0  0  2  0  0  0  0  0  0  0  0  0
   33.1259  -10.0212   70.5463 N   0  0  0  0  0  0  0  0  0  0  0  0
   30.3729  -11.3881   69.9475 O   0  0  0  0  0  0  0  0  0  0  0  0
   32.1981   -9.5229   71.3212 C   0  0  0  0  0  0  0  0  0  0  0  0
   30.0560  -10.2528   70.8050 C   0  0  0  0  0  0  0  0  0  0  0  0
   28.6709  -10.3576   71.1019 O   0  0  0  0  0  0  0  0  0  0  0  0
   34.1939   -9.7467   71.2230 C   0  0  0  0  0  0  0  0  0  0  0  0
   30.8222   -9.5679   71.5599 C   0  0  0  0  0  0  0  0  0  0  0  0
   32.6461   -8.3632   72.1453 N   0  0  0  0  0  0  0  0  0  0  0  0
   30.0526   -8.6777   72.4325 C   0  0  1  0  0  0  0  0  0  0  0  0
   28.6155   -8.7274   72.6042 O   0  0  0  0  0  0  0  0  0  0  0  0
   35.4823  -10.2950   70.8150 O   0  0  0  0  0  0  0  0  0  0  0  0
   34.0743   -8.6644   71.9590 N   0  0  0  0  0  0  0  0  0  0  0  0
   31.9584   -7.6076   72.9473 C   0  0  0  0  0  0  0  0  0  0  0  0
   30.8779   -7.5915   73.0582 C   0  0  0  0  0  0  0  0  0  0  0  0
   32.7273   -6.6640   73.5769 O   0  0  0  0  0  0  0  0  0  0  0  0
   31.4679   -5.1046   60.6803 H   0  0  0  0  0  0  0  0  0  0  0  0
   30.3298   -5.2308   62.6262 H   0  0  0  0  0  0  0  0  0  0  0  0
   33.5836   -6.6159   60.3841 H   0  0  0  0  0  0  0  0  0  0  0  0
   34.1559   -9.5745   61.4456 H   0  0  0  0  0  0  0  0  0  0  0  0
   30.7036   -8.9047   65.9459 H   0  0  0  0  0  0  0  0  0  0  0  0
   29.1469   -8.2211   66.6496 H   0  0  0  0  0  0  0  0  0  0  0  0
   29.0956   -7.8683   62.7090 H   0  0  0  0  0  0  0  0  0  0  0  0
   30.0755   -9.2728   63.2220 H   0  0  0  0  0  0  0  0  0  0  0  0
   26.2965   -7.1903   65.6763 H   0  0  0  0  0  0  0  0  0  0  0  0
   34.2894   -7.9142   64.7205 H   0  0  0  0  0  0  0  0  0  0  0  0
   28.0741  -10.1959   62.8000 H   0  0  0  0  0  0  0  0  0  0  0  0
   31.9869   -8.4446   65.3732 H   0  0  0  0  0  0  0  0  0  0  0  0
   31.9139   -9.7244   64.1708 H   0  0  0  0  0  0  0  0  0  0  0  0
   35.7640   -7.4333   62.5407 H   0  0  0  0  0  0  0  0  0  0  0  0
   25.8888   -8.9769   63.4304 H   0  0  0  0  0  0  0  0  0  0  0  0
   26.9120   -7.6962   62.8277 H   0  0  0  0  0  0  0  0  0  0  0  0
   26.9047   -9.3264   66.6451 H   0  0  0  0  0  0  0  0  0  0  0  0
   25.7368   -9.6597   65.3869 H   0  0  0  0  0  0  0  0  0  0  0  0
   27.5741  -12.8569   63.0279 H   0  0  0  0  0  0  0  0  0  0  0  0
   32.8054  -12.4964   65.8642 H   0  0  0  0  0  0  0  0  0  0  0  0
   34.5263  -12.1970   66.4426 H   0  0  0  0  0  0  0  0  0  0  0  0
   33.3912  -13.3058   67.9319 H   0  0  0  0  0  0  0  0  0  0  0  0
   31.2618  -11.5835   67.0796 H   0  0  0  0  0  0  0  0  0  0  0  0
   31.2030  -12.9628   68.2644 H   0  0  0  0  0  0  0  0  0  0  0  0
   31.0812  -10.2214   68.5507 H   0  0  0  0  0  0  0  0  0  0  0  0
   32.8490  -12.0634   70.5564 H   0  0  0  0  0  0  0  0  0  0  0  0
   29.9287   -7.9691   71.6003 H   0  0  0  0  0  0  0  0  0  0  0  0
   28.3986   -8.7349   73.5701 H   0  0  0  0  0  0  0  0  0  0  0  0
   36.2976  -10.0829   71.3351 H   0  0  0  0  0  0  0  0  0  0  0  0
   30.5273   -6.6391   72.6339 H   0  0  0  0  0  0  0  0  0  0  0  0
   30.7276   -7.7432   74.1373 H   0  0  0  0  0  0  0  0  0  0  0  0
  1  2  2  0
  1  3  1  0
  2  4  1  0
  4  5  1  0
  4  6  2  0
  3  7  2  0
  6  7  1  0
  8  5  1  6
  7  9  1  0
  9 10  1  0
  8 11  1  0
  8 12  1  0
  8 13  1  0
 13 14  1  0
 10 15  1  0
 12 16  1  0
  6 17  1  0
 15 17  1  0
 11 18  1  0
  9 19  1  0
 15 20  1  0
 16 21  1  0
 18 21  1  0
 14 22  1  0
 16 22  1  0
 18 23  2  0
 14 24  1  0
 21 24  1  0
 20 25  2  0
 21 26  1  6
 26 27  1  0
 26 28  2  0
 20 29  1  0
 29 30  1  0
 30 31  1  0
 31 32  1  0
 31 33  1  0
 33 34  1  0
 32 35  1  0
 34 35  1  0
 35 36  1  0
 34 37  1  0
 36 38  1  0
 37 39  1  0
 39 40  2  0
 36 41  1  0
 38 42  2  0
 39 42  1  0
 38 43  1  0
 42 44  1  0
 44 45  1  0
 41 46  1  0
 41 47  2  0
 43 47  1  0
 43 48  1  0
 44 49  1  0
 48 49  1  0
 48 50  2  0
  1 51  1  0
  2 52  1  0
  3 53  1  0
  9 54  1  6
 11 55  1  0
 11 56  1  0
 12 57  1  0
 12 58  1  0
 14 59  1  6
 15 60  1  1
 16 61  1  6
 17 62  1  0
 17 63  1  0
 19 64  1  0
 22 65  1  0
 22 66  1  0
 24 67  1  0
 24 68  1  0
 27 69  1  0
 30 70  1  0
 30 71  1  0
 31 72  1  1
 33 73  1  0
 33 74  1  0
 34 75  1  6
 35 76  1  1
 44 77  1  1
 45 78  1  0
 46 79  1  0
 49 80  1  0
 49 81  1  0
M  END
$$$$
1b9v_Pocket2Mol_97671
     RDKit          3D

 57 60  0  0  0  0  0  0  0  0999 V2000
   28.7808  -12.8375   62.6306 O   0  0  0  0  0  0  0  0  0  0  0  0
   28.5959  -11.9611   63.5411 C   0  0  0  0  0  0  0  0  0  0  0  0
   29.6236  -11.0863   63.7379 C   0  0  0  0  0  0  0  0  0  0  0  0
   27.7579  -12.4091   64.5778 O   0  0  0  0  0  0  0  0  0  0  0  0
   30.8318  -11.3514   64.2360 C   0  0  0  0  0  0  0  0  0  0  0  0
   29.2696   -9.6935   63.4032 C   0  0  1  0  0  0  0  0  0  0  0  0
   27.8499   -9.3436   63.1785 C   0  0  0  0  0  0  0  0  0  0  0  0
   27.2560   -8.2133   63.7705 C   0  0  0  0  0  0  0  0  0  0  0  0
   28.0349   -7.6654   64.7078 C   0  0  0  0  0  0  0  0  0  0  0  0
   27.3231   -6.4669   65.2864 O   0  0  0  0  0  0  0  0  0  0  0  0
   29.3764   -7.8959   64.8975 C   0  0  0  0  0  0  0  0  0  0  0  0
   29.8770   -8.9735   64.5115 C   0  0  2  0  0  0  0  0  0  0  0  0
   29.9568   -6.8587   65.4393 O   0  0  0  0  0  0  0  0  0  0  0  0
   31.3130   -9.2128   64.9307 C   0  0  0  0  0  0  0  0  0  0  0  0
   32.1985   -9.3343   63.8623 C   0  0  2  0  0  0  0  0  0  0  0  0
   32.1833  -10.8890   63.7013 C   0  0  1  0  0  0  0  0  0  0  0  0
   33.3586  -11.3707   64.4363 O   0  0  0  0  0  0  0  0  0  0  0  0
   33.6173  -10.8950   65.6214 C   0  0  2  0  0  0  0  0  0  0  0  0
   33.6421   -9.0333   64.1965 N   0  0  0  0  0  0  0  0  0  0  0  0
   34.1784   -9.6085   65.3637 C   0  0  0  0  0  0  0  0  0  0  0  0
   34.4636  -11.7964   66.2420 O   0  0  0  0  0  0  0  0  0  0  0  0
   34.1960  -12.3081   67.4507 C   0  0  0  0  0  0  0  0  0  0  0  0
   34.3151  -13.5024   67.6378 O   0  0  0  0  0  0  0  0  0  0  0  0
   33.5583  -11.4307   68.3853 C   0  0  0  0  0  0  0  0  0  0  0  0
   34.3091   -8.0457   63.3906 C   0  0  0  0  0  0  0  0  0  0  0  0
   34.1733   -8.0224   62.0880 C   0  0  2  0  0  0  0  0  0  0  0  0
   35.2165   -7.2121   63.9696 O   0  0  0  0  0  0  0  0  0  0  0  0
   34.7565   -6.9886   61.4683 O   0  0  0  0  0  0  0  0  0  0  0  0
   32.5620   -7.9773   61.6685 C   0  0  0  0  0  0  0  0  0  0  0  0
   31.8281   -9.0014   62.4258 O   0  0  0  0  0  0  0  0  0  0  0  0
   31.9477   -6.6251   62.0326 C   0  0  0  0  0  0  0  0  0  0  0  0
   32.2486   -8.1814   60.2185 C   0  0  0  0  0  0  0  0  0  0  0  0
   28.0756  -13.5042   62.4348 H   0  0  0  0  0  0  0  0  0  0  0  0
   30.8567  -11.9779   65.1398 H   0  0  0  0  0  0  0  0  0  0  0  0
   29.6330   -9.4381   62.3968 H   0  0  0  0  0  0  0  0  0  0  0  0
   27.7321   -9.2193   62.0919 H   0  0  0  0  0  0  0  0  0  0  0  0
   27.3268  -10.1693   63.6831 H   0  0  0  0  0  0  0  0  0  0  0  0
   26.2646   -7.8255   63.4934 H   0  0  0  0  0  0  0  0  0  0  0  0
   27.7535   -5.9325   66.0000 H   0  0  0  0  0  0  0  0  0  0  0  0
   29.4065   -9.7344   65.1515 H   0  0  0  0  0  0  0  0  0  0  0  0
   31.6373   -8.3674   65.5553 H   0  0  0  0  0  0  0  0  0  0  0  0
   31.3328  -10.1695   65.4732 H   0  0  0  0  0  0  0  0  0  0  0  0
   32.2644  -11.2792   62.6760 H   0  0  0  0  0  0  0  0  0  0  0  0
   32.7618  -10.7729   66.3020 H   0  0  0  0  0  0  0  0  0  0  0  0
   33.9649   -8.9485   66.2174 H   0  0  0  0  0  0  0  0  0  0  0  0
   35.2625   -9.7285   65.2211 H   0  0  0  0  0  0  0  0  0  0  0  0
   33.7930  -11.7536   69.4103 H   0  0  0  0  0  0  0  0  0  0  0  0
   33.9225  -10.4042   68.2318 H   0  0  0  0  0  0  0  0  0  0  0  0
   32.4695  -11.4602   68.2318 H   0  0  0  0  0  0  0  0  0  0  0  0
   34.6776   -8.9428   61.7584 H   0  0  0  0  0  0  0  0  0  0  0  0
   35.1125   -6.3576   62.1430 H   0  0  0  0  0  0  0  0  0  0  0  0
   31.9025   -6.5257   63.1272 H   0  0  0  0  0  0  0  0  0  0  0  0
   32.5671   -5.8170   61.6163 H   0  0  0  0  0  0  0  0  0  0  0  0
   30.9316   -6.5599   61.6163 H   0  0  0  0  0  0  0  0  0  0  0  0
   31.3304   -8.7794   60.1225 H   0  0  0  0  0  0  0  0  0  0  0  0
   32.1025   -7.2047   59.7339 H   0  0  0  0  0  0  0  0  0  0  0  0
   33.0828   -8.7100   59.7339 H   0  0  0  0  0  0  0  0  0  0  0  0
  1  2  1  0
  2  3  1  0
  2  4  2  0
  3  5  2  0
  3  6  1  0
  6  7  1  0
  7  8  1  0
  8  9  2  0
  9 10  1  0
  9 11  1  0
  6 12  1  0
 11 12  1  0
 11 13  2  0
 12 14  1  0
 14 15  1  0
  5 16  1  0
 15 16  1  0
 16 17  1  0
 17 18  1  0
 15 19  1  0
 18 20  1  0
 19 20  1  0
 18 21  1  0
 21 22  1  0
 22 23  2  0
 22 24  1  0
 19 25  1  0
 25 26  1  0
 25 27  2  0
 26 28  1  0
 26 29  1  0
 15 30  1  6
 29 30  1  0
 29 31  1  0
 29 32  1  0
  1 33  1  0
  5 34  1  0
  6 35  1  6
  7 36  1  0
  7 37  1  0
  8 38  1  0
 10 39  1  0
 12 40  1  1
 14 41  1  0
 14 42  1  0
 16 43  1  6
 18 44  1  1
 20 45  1  0
 20 46  1  0
 24 47  1  0
 24 48  1  0
 24 49  1  0
 26 50  1  6
 28 51  1  0
 31 52  1  0
 31 53  1  0
 31 54  1  0
 32 55  1  0
 32 56  1  0
 32 57  1  0
M  END
$$$$
1b9v_Pocket2Mol_97672
     RDKit          3D

 60 63  0  0  0  0  0  0  0  0999 V2000
   31.1011   -6.1973   64.7621 O   0  0  0  0  0  0  0  0  0  0  0  0
   31.4292   -6.4817   63.5421 C   0  0  0  0  0  0  0  0  0  0  0  0
   31.0125   -5.9388   62.4908 C   0  0  0  0  0  0  0  0  0  0  0  0
   32.1470   -7.7239   63.5212 N   0  0  0  0  0  0  0  0  0  0  0  0
   33.6248   -7.6312   63.0973 C   0  0  1  0  0  0  0  0  0  0  0  0
   31.7897   -9.0126   63.9484 C   0  0  0  0  0  0  0  0  0  0  0  0
   34.5630   -7.6137   64.1551 C   0  0  0  0  0  0  0  0  0  0  0  0
   32.8452   -9.8115   64.5653 C   0  0  2  0  0  0  0  0  0  0  0  0
   32.5376  -10.8244   65.4132 C   0  0  1  0  0  0  0  0  0  0  0  0
   33.8231   -8.6799   61.9836 C   0  0  0  0  0  0  0  0  0  0  0  0
   35.5518   -6.8566   64.2745 O   0  0  0  0  0  0  0  0  0  0  0  0
   30.6416   -9.3828   63.7360 C   0  0  0  0  0  0  0  0  0  0  0  0
   34.1106   -8.9993   65.1646 C   0  0  1  0  0  0  0  0  0  0  0  0
   35.3287   -9.8449   65.2683 C   0  0  0  0  0  0  0  0  0  0  0  0
   30.0955  -10.7077   63.9069 C   0  0  1  0  0  0  0  0  0  0  0  0
   31.5096  -11.7907   65.1598 C   0  0  0  0  0  0  0  0  0  0  0  0
   32.9975   -8.4878   60.7605 C   0  0  0  0  0  0  0  0  0  0  0  0
   33.5451  -11.7144   66.1365 C   0  0  2  0  0  0  0  0  0  0  0  0
   33.2579  -12.2656   67.3326 C   0  0  0  0  0  0  0  0  0  0  0  0
   33.2307  -13.6129   67.3673 O   0  0  0  0  0  0  0  0  0  0  0  0
   32.9910  -11.6042   68.3571 O   0  0  0  0  0  0  0  0  0  0  0  0
   28.7147  -10.8630   63.3697 C   0  0  1  0  0  0  0  0  0  0  0  0
   28.1357  -12.1938   63.8394 C   0  0  0  0  0  0  0  0  0  0  0  0
   27.6389   -9.9764   63.8322 C   0  0  0  0  0  0  0  0  0  0  0  0
   27.7309   -9.3442   64.9278 O   0  0  0  0  0  0  0  0  0  0  0  0
   30.4178  -11.8346   64.4485 C   0  0  0  0  0  0  0  0  0  0  0  0
   26.8542   -9.4396   62.9013 O   0  0  0  0  0  0  0  0  0  0  0  0
   29.3824  -12.7410   64.3124 O   0  0  0  0  0  0  0  0  0  0  0  0
   34.8079  -10.7979   66.1451 O   0  0  0  0  0  0  0  0  0  0  0  0
   32.0530   -9.6608   60.4644 C   0  0  0  0  0  0  0  0  0  0  0  0
   30.9040   -9.3666   59.7758 C   0  0  0  0  0  0  0  0  0  0  0  0
   30.5639  -10.4970   58.7755 N   0  0  0  0  0  0  0  0  0  0  0  0
   30.3615   -5.0906   62.7493 H   0  0  0  0  0  0  0  0  0  0  0  0
   31.8678   -5.5780   61.9006 H   0  0  0  0  0  0  0  0  0  0  0  0
   30.4428   -6.6717   61.9006 H   0  0  0  0  0  0  0  0  0  0  0  0
   33.8536   -6.6371   62.6857 H   0  0  0  0  0  0  0  0  0  0  0  0
   33.1210  -10.3080   63.6233 H   0  0  0  0  0  0  0  0  0  0  0  0
   32.2414   -9.9333   65.9861 H   0  0  0  0  0  0  0  0  0  0  0  0
   34.8812   -8.6582   61.6837 H   0  0  0  0  0  0  0  0  0  0  0  0
   33.5007   -9.6391   62.4148 H   0  0  0  0  0  0  0  0  0  0  0  0
   29.9440   -8.6142   63.3718 H   0  0  0  0  0  0  0  0  0  0  0  0
   33.7758   -8.6688   66.1589 H   0  0  0  0  0  0  0  0  0  0  0  0
   35.6213  -10.2798   64.3012 H   0  0  0  0  0  0  0  0  0  0  0  0
   36.2512   -9.3379   65.5876 H   0  0  0  0  0  0  0  0  0  0  0  0
   29.6826  -10.4117   64.8826 H   0  0  0  0  0  0  0  0  0  0  0  0
   31.6862  -12.7316   65.7016 H   0  0  0  0  0  0  0  0  0  0  0  0
   32.3923   -7.5783   60.8891 H   0  0  0  0  0  0  0  0  0  0  0  0
   33.6927   -8.4121   59.9114 H   0  0  0  0  0  0  0  0  0  0  0  0
   33.6256  -12.6755   65.6076 H   0  0  0  0  0  0  0  0  0  0  0  0
   32.7882  -12.0689   69.2074 H   0  0  0  0  0  0  0  0  0  0  0  0
   28.9155  -10.6845   62.3030 H   0  0  0  0  0  0  0  0  0  0  0  0
   27.3923  -12.0746   64.6414 H   0  0  0  0  0  0  0  0  0  0  0  0
   27.5753  -12.7861   63.1011 H   0  0  0  0  0  0  0  0  0  0  0  0
   26.1155   -8.8355   63.1648 H   0  0  0  0  0  0  0  0  0  0  0  0
   32.6147  -10.4007   59.8753 H   0  0  0  0  0  0  0  0  0  0  0  0
   31.7170  -10.0177   61.4492 H   0  0  0  0  0  0  0  0  0  0  0  0
   30.0742   -9.2532   60.4889 H   0  0  0  0  0  0  0  0  0  0  0  0
   31.0554   -8.4317   59.2163 H   0  0  0  0  0  0  0  0  0  0  0  0
   30.3076  -11.3490   59.2944 H   0  0  0  0  0  0  0  0  0  0  0  0
   29.7735  -10.2049   58.1831 H   0  0  0  0  0  0  0  0  0  0  0  0
  1  2  2  0
  2  3  1  0
  2  4  1  0
  4  5  1  0
  4  6  1  0
  5  7  1  0
  6  8  1  0
  8  9  1  0
  5 10  1  0
  7 11  2  0
  6 12  2  0
  7 13  1  0
  8 13  1  0
 13 14  1  0
 12 15  1  0
  9 16  1  0
 10 17  1  0
  9 18  1  0
 18 19  1  0
 19 20  2  0
 19 21  1  0
 15 22  1  0
 22 23  1  0
 22 24  1  0
 24 25  2  0
 15 26  1  0
 16 26  2  0
 24 27  1  0
 23 28  1  0
 26 28  1  0
 14 29  1  0
 18 29  1  0
 17 30  1  0
 30 31  1  0
 31 32  1  0
  3 33  1  0
  3 34  1  0
  3 35  1  0
  5 36  1  6
  8 37  1  6
  9 38  1  1
 10 39  1  0
 10 40  1  0
 12 41  1  0
 13 42  1  1
 14 43  1  0
 14 44  1  0
 15 45  1  6
 16 46  1  0
 17 47  1  0
 17 48  1  0
 18 49  1  6
 21 50  1  0
 22 51  1  6
 23 52  1  0
 23 53  1  0
 27 54  1  0
 30 55  1  0
 30 56  1  0
 31 57  1  0
 31 58  1  0
 32 59  1  0
 32 60  1  0
M  END
$$$$
1b9v_PocketFlow_11783
     RDKit          3D

 23 24  0  0  0  0  0  0  0  0999 V2000
   33.3734  -11.1664   65.9861 C   0  0  0  0  0  0  0  0  0  0  0  0
   32.9775  -10.0977   65.4689 C   0  0  0  0  0  0  0  0  0  0  0  0
   31.5984   -9.8939   65.2720 C   0  0  0  0  0  0  0  0  0  0  0  0
   31.1779   -9.0092   64.2667 C   0  0  0  0  0  0  0  0  0  0  0  0
   29.8239   -8.8655   63.9850 C   0  0  0  0  0  0  0  0  0  0  0  0
   29.0088   -9.9547   63.6944 C   0  0  0  0  0  0  0  0  0  0  0  0
   32.5506  -12.0759   66.6645 C   0  0  0  0  0  0  0  0  0  0  0  0
   31.1632  -11.8603   66.4566 C   0  0  0  0  0  0  0  0  0  0  0  0
   30.7551  -10.7963   65.7299 C   0  0  0  0  0  0  0  0  0  0  0  0
   29.1319  -11.1188   64.5346 C   0  0  0  0  0  0  0  0  0  0  0  0
   29.9611  -11.4123   65.2755 C   0  0  0  0  0  0  0  0  0  0  0  0
   34.4430  -11.4091   65.9023 H   0  0  0  0  0  0  0  0  0  0  0  0
   33.7007   -9.3244   65.1708 H   0  0  0  0  0  0  0  0  0  0  0  0
   31.5512   -8.0126   64.5451 H   0  0  0  0  0  0  0  0  0  0  0  0
   31.5789   -9.4631   63.3485 H   0  0  0  0  0  0  0  0  0  0  0  0
   29.3829   -7.8578   63.9922 H   0  0  0  0  0  0  0  0  0  0  0  0
   28.2977   -9.9283   62.8555 H   0  0  0  0  0  0  0  0  0  0  0  0
   32.9441  -12.8830   67.2999 H   0  0  0  0  0  0  0  0  0  0  0  0
   30.4249  -12.5547   66.8841 H   0  0  0  0  0  0  0  0  0  0  0  0
   28.2179  -11.1058   65.1465 H   0  0  0  0  0  0  0  0  0  0  0  0
   29.3820  -11.8417   63.7441 H   0  0  0  0  0  0  0  0  0  0  0  0
   30.5066  -12.2183   64.7628 H   0  0  0  0  0  0  0  0  0  0  0  0
   29.3279  -11.5159   66.1690 H   0  0  0  0  0  0  0  0  0  0  0  0
  3  4  1  0
  4  5  1  0
  5  6  2  0
  6 10  1  0
  9 11  1  0
 10 11  1  0
  1  2  2  0
  2  3  1  0
  3  9  2  0
  9  8  1  0
  8  7  2  0
  7  1  1  0
  1 12  1  0
  2 13  1  0
  4 14  1  0
  4 15  1  0
  5 16  1  0
  6 17  1  0
  7 18  1  0
  8 19  1  0
 10 20  1  0
 10 21  1  0
 11 22  1  0
 11 23  1  0
M  END
$$$$
1b9v_PocketFlow_11785
     RDKit          3D

 22 23  0  0  0  0  0  0  0  0999 V2000
   32.1427  -10.9104   65.1883 C   0  0  0  0  0  0  0  0  0  0  0  0
   30.9796  -10.9415   64.9247 C   0  0  0  0  0  0  0  0  0  0  0  0
   33.0462   -9.8799   64.7535 C   0  0  0  0  0  0  0  0  0  0  0  0
   34.4767   -9.8154   65.1626 C   0  0  0  0  0  0  0  0  0  0  0  0
   30.0568  -11.8364   65.5234 C   0  0  0  0  0  0  0  0  0  0  0  0
   28.6765  -11.8789   65.0988 C   0  0  0  0  0  0  0  0  0  0  0  0
   28.2798  -11.0728   64.0002 C   0  0  0  0  0  0  0  0  0  0  0  0
   29.1574  -10.2035   63.4312 C   0  0  0  0  0  0  0  0  0  0  0  0
   30.4765  -10.1606   63.8180 C   0  0  0  0  0  0  0  0  0  0  0  0
   35.1591   -8.7890   64.7565 O   0  0  0  0  0  0  0  0  0  0  0  0
   31.2997   -9.1606   63.1873 C   0  0  0  0  0  0  0  0  0  0  0  0
   32.7171   -9.0926   63.6543 C   0  0  0  0  0  0  0  0  0  0  0  0
   32.5512  -11.7244   65.8052 H   0  0  0  0  0  0  0  0  0  0  0  0
   34.5082   -9.8211   66.2621 H   0  0  0  0  0  0  0  0  0  0  0  0
   34.9513  -10.6831   64.6812 H   0  0  0  0  0  0  0  0  0  0  0  0
   30.3975  -12.5092   66.3242 H   0  0  0  0  0  0  0  0  0  0  0  0
   27.9490  -12.5220   65.6157 H   0  0  0  0  0  0  0  0  0  0  0  0
   27.2558  -11.1516   63.6063 H   0  0  0  0  0  0  0  0  0  0  0  0
   28.8046   -9.5201   62.6448 H   0  0  0  0  0  0  0  0  0  0  0  0
   35.4943   -8.2848   65.5397 H   0  0  0  0  0  0  0  0  0  0  0  0
   30.9085   -8.4883   62.4095 H   0  0  0  0  0  0  0  0  0  0  0  0
   33.4612   -8.4540   63.1557 H   0  0  0  0  0  0  0  0  0  0  0  0
  3  4  1  0
  4 10  1  0
  2  5  1  0
  5  6  2  0
  6  7  1  0
  7  8  2  0
  8  9  1  0
  1  2  2  0
  2  9  1  0
  9 11  2  0
 11 12  1  0
 12  3  2  0
  3  1  1  0
  1 13  1  0
  4 14  1  0
  4 15  1  0
  5 16  1  0
  6 17  1  0
  7 18  1  0
  8 19  1  0
 10 20  1  0
 11 21  1  0
 12 22  1  0
M  END
$$$$
1b9v_PocketFlow_11789
     RDKit          3D

 59 61  0  0  0  0  0  0  0  0999 V2000
   32.1427  -10.9104   65.1883 C   0  0  0  0  0  0  0  0  0  0  0  0
   30.9796  -10.9415   64.9247 C   0  0  1  0  0  0  0  0  0  0  0  0
   32.5291  -11.7568   66.3682 C   0  0  0  0  0  0  0  0  0  0  0  0
   30.5840   -9.9705   63.8697 C   0  0  2  0  0  0  0  0  0  0  0  0
   29.1876   -9.7649   63.6048 C   0  0  0  0  0  0  0  0  0  0  0  0
   28.6438   -8.4363   63.5524 C   0  0  0  0  0  0  0  0  0  0  0  0
   31.6753  -12.7849   66.6751 C   0  0  0  0  0  0  0  0  0  0  0  0
   32.1176  -13.5837   67.8414 C   0  0  0  0  0  0  0  0  0  0  0  0
   33.2591  -13.2849   68.5432 C   0  0  0  0  0  0  0  0  0  0  0  0
   33.9997  -12.1682   68.2569 C   0  0  0  0  0  0  0  0  0  0  0  0
   33.6436  -11.3529   67.1989 C   0  0  0  0  0  0  0  0  0  0  0  0
   29.2195   -7.6774   64.4493 C   0  0  1  0  0  0  0  0  0  0  0  0
   30.6395   -7.3310   64.2675 C   0  0  0  0  0  0  0  0  0  0  0  0
   31.2470   -7.7920   63.0692 C   0  0  1  0  0  0  0  0  0  0  0  0
   32.3674   -6.9952   62.5948 C   0  0  2  0  0  0  0  0  0  0  0  0
   31.5655   -9.1963   63.1991 C   0  0  0  0  0  0  0  0  0  0  0  0
   32.5488   -6.8257   61.2361 C   0  0  0  0  0  0  0  0  0  0  0  0
   28.5079  -10.8849   64.3336 C   0  0  2  0  0  0  0  0  0  0  0  0
   29.6894  -11.5252   65.2292 C   0  0  0  0  0  0  0  0  0  0  0  0
   31.4122  -14.7173   68.0835 O   0  0  0  0  0  0  0  0  0  0  0  0
   27.9647  -12.0213   63.5466 C   0  0  0  0  0  0  0  0  0  0  0  0
   27.5773  -10.3214   65.4155 C   0  0  0  0  0  0  0  0  0  0  0  0
   33.6505   -7.4799   63.3293 C   0  0  0  0  0  0  0  0  0  0  0  0
   34.3298   -6.5315   64.1689 C   0  0  0  0  0  0  0  0  0  0  0  0
   28.4649   -6.3845   64.5366 O   0  0  0  0  0  0  0  0  0  0  0  0
   28.5058  -13.0618   63.4027 O   0  0  0  0  0  0  0  0  0  0  0  0
   26.7484  -11.8693   63.2425 O   0  0  0  0  0  0  0  0  0  0  0  0
   32.7049  -11.2637   64.3113 H   0  0  0  0  0  0  0  0  0  0  0  0
   32.3790   -9.8696   65.4546 H   0  0  0  0  0  0  0  0  0  0  0  0
   30.7844  -10.1824   65.6965 H   0  0  0  0  0  0  0  0  0  0  0  0
   30.5603   -9.1658   64.6193 H   0  0  0  0  0  0  0  0  0  0  0  0
   27.8572   -8.1049   62.8586 H   0  0  0  0  0  0  0  0  0  0  0  0
   30.7543  -12.9953   66.1117 H   0  0  0  0  0  0  0  0  0  0  0  0
   33.5857  -13.9555   69.3517 H   0  0  0  0  0  0  0  0  0  0  0  0
   34.8788  -11.9202   68.8698 H   0  0  0  0  0  0  0  0  0  0  0  0
   34.1925  -10.4220   66.9937 H   0  0  0  0  0  0  0  0  0  0  0  0
   29.1944   -8.3014   65.3548 H   0  0  0  0  0  0  0  0  0  0  0  0
   30.7229   -6.2343   64.2862 H   0  0  0  0  0  0  0  0  0  0  0  0
   31.1742   -7.8386   65.0839 H   0  0  0  0  0  0  0  0  0  0  0  0
   30.5045   -7.6616   62.2682 H   0  0  0  0  0  0  0  0  0  0  0  0
   32.1063   -5.9590   62.8557 H   0  0  0  0  0  0  0  0  0  0  0  0
   32.5093   -9.2827   63.7574 H   0  0  0  0  0  0  0  0  0  0  0  0
   31.6277   -9.5951   62.1758 H   0  0  0  0  0  0  0  0  0  0  0  0
   33.3424   -6.0842   61.0618 H   0  0  0  0  0  0  0  0  0  0  0  0
   32.8374   -7.7852   60.7822 H   0  0  0  0  0  0  0  0  0  0  0  0
   31.6110   -6.4727   60.7822 H   0  0  0  0  0  0  0  0  0  0  0  0
   29.7348  -12.6071   65.0359 H   0  0  0  0  0  0  0  0  0  0  0  0
   29.4643  -11.3184   66.2859 H   0  0  0  0  0  0  0  0  0  0  0  0
   31.6551  -15.2977   68.8478 H   0  0  0  0  0  0  0  0  0  0  0  0
   27.9805  -10.5655   66.4094 H   0  0  0  0  0  0  0  0  0  0  0  0
   27.5073   -9.2291   65.3064 H   0  0  0  0  0  0  0  0  0  0  0  0
   26.5769  -10.7656   65.3064 H   0  0  0  0  0  0  0  0  0  0  0  0
   33.3665   -8.3351   63.9602 H   0  0  0  0  0  0  0  0  0  0  0  0
   34.3661   -7.7073   62.5254 H   0  0  0  0  0  0  0  0  0  0  0  0
   34.1503   -6.7821   65.2248 H   0  0  0  0  0  0  0  0  0  0  0  0
   35.4096   -6.5663   63.9622 H   0  0  0  0  0  0  0  0  0  0  0  0
   33.9493   -5.5203   63.9622 H   0  0  0  0  0  0  0  0  0  0  0  0
   28.3262   -6.1469   65.4876 H   0  0  0  0  0  0  0  0  0  0  0  0
   26.2788  -12.5648   62.7173 H   0  0  0  0  0  0  0  0  0  0  0  0
  1  2  1  0
  1  3  1  0
  2  4  1  0
  4  5  1  0
  5  6  2  0
  6 12  1  0
 12 13  1  0
 13 14  1  0
 14 15  1  0
  4 16  1  0
 14 16  1  0
 15 17  1  0
  5 18  1  0
  2 19  1  0
 18 19  1  0
  8 20  1  0
 18 21  1  0
 18 22  1  1
 15 23  1  0
 23 24  1  0
 12 25  1  0
 21 26  2  0
 21 27  1  0
  3  7  2  0
  7  8  1  0
  8  9  2  0
  9 10  1  0
 10 11  2  0
 11  3  1  0
  1 28  1  0
  1 29  1  0
  2 30  1  1
  4 31  1  6
  6 32  1  0
  7 33  1  0
  9 34  1  0
 10 35  1  0
 11 36  1  0
 12 37  1  1
 13 38  1  0
 13 39  1  0
 14 40  1  6
 15 41  1  1
 16 42  1  0
 16 43  1  0
 17 44  1  0
 17 45  1  0
 17 46  1  0
 19 47  1  0
 19 48  1  0
 20 49  1  0
 22 50  1  0
 22 51  1  0
 22 52  1  0
 23 53  1  0
 23 54  1  0
 24 55  1  0
 24 56  1  0
 24 57  1  0
 25 58  1  0
 27 59  1  0
M  END
$$$$
1b9v_PocketFlow_13818
     RDKit          3D

 33 33  0  0  0  0  0  0  0  0999 V2000
   33.3734  -11.1664   65.9861 C   0  0  0  0  0  0  0  0  0  0  0  0
   32.9775  -10.0977   65.4689 C   0  0  0  0  0  0  0  0  0  0  0  0
   31.5984   -9.8939   65.2720 C   0  0  0  0  0  0  0  0  0  0  0  0
   31.1779   -9.0092   64.2668 C   0  0  0  0  0  0  0  0  0  0  0  0
   32.0354   -8.5032   63.4523 C   0  0  0  0  0  0  0  0  0  0  0  0
   33.4651   -8.7581   63.6159 C   0  0  0  0  0  0  0  0  0  0  0  0
   33.9091   -9.5494   64.5257 C   0  0  0  0  0  0  0  0  0  0  0  0
   34.5825  -11.2719   66.4513 O   0  0  0  0  0  0  0  0  0  0  0  0
   32.5770  -12.1771   66.4797 N   0  0  0  0  0  0  0  0  0  0  0  0
   32.9543  -13.3706   67.2657 C   0  0  0  0  0  0  0  0  0  0  0  0
   29.7234   -8.7523   64.1643 C   0  0  0  0  0  0  0  0  0  0  0  0
   29.1734   -7.5329   64.5318 C   0  0  0  0  0  0  0  0  0  0  0  0
   28.9118   -9.7712   63.6081 C   0  0  0  0  0  0  0  0  0  0  0  0
   29.2490  -10.9661   63.1994 C   0  0  0  0  0  0  0  0  0  0  0  0
   28.8676  -12.0713   64.0518 C   0  0  0  0  0  0  0  0  0  0  0  0
   27.6438  -12.4984   63.8899 O   0  0  0  0  0  0  0  0  0  0  0  0
   30.8615  -10.4201   65.8966 H   0  0  0  0  0  0  0  0  0  0  0  0
   31.6881   -7.8706   62.6221 H   0  0  0  0  0  0  0  0  0  0  0  0
   34.1790   -8.2601   62.9433 H   0  0  0  0  0  0  0  0  0  0  0  0
   34.9787   -9.8006   64.5801 H   0  0  0  0  0  0  0  0  0  0  0  0
   31.5725  -12.0877   66.2703 H   0  0  0  0  0  0  0  0  0  0  0  0
   32.8817  -13.1408   68.3390 H   0  0  0  0  0  0  0  0  0  0  0  0
   32.2746  -14.2003   67.0215 H   0  0  0  0  0  0  0  0  0  0  0  0
   33.9874  -13.6589   67.0215 H   0  0  0  0  0  0  0  0  0  0  0  0
   28.0890   -7.3701   64.4450 H   0  0  0  0  0  0  0  0  0  0  0  0
   29.8217   -6.7288   64.9100 H   0  0  0  0  0  0  0  0  0  0  0  0
   28.1407   -9.9521   64.3715 H   0  0  0  0  0  0  0  0  0  0  0  0
   28.7461   -9.3133   62.6217 H   0  0  0  0  0  0  0  0  0  0  0  0
   28.7836  -11.1266   62.2157 H   0  0  0  0  0  0  0  0  0  0  0  0
   30.3490  -10.9712   63.1906 H   0  0  0  0  0  0  0  0  0  0  0  0
   29.5507  -12.9094   63.8495 H   0  0  0  0  0  0  0  0  0  0  0  0
   28.9277  -11.6971   65.0844 H   0  0  0  0  0  0  0  0  0  0  0  0
   27.2254  -12.6444   64.7752 H   0  0  0  0  0  0  0  0  0  0  0  0
  1  2  1  0
  1  8  2  0
  1  9  1  0
  9 10  1  0
  4 11  1  0
 11 12  2  0
 11 13  1  0
 13 14  1  0
 14 15  1  0
 15 16  1  0
  2  3  2  0
  3  4  1  0
  4  5  2  0
  5  6  1  0
  6  7  2  0
  7  2  1  0
  3 17  1  0
  5 18  1  0
  6 19  1  0
  7 20  1  0
  9 21  1  0
 10 22  1  0
 10 23  1  0
 10 24  1  0
 12 25  1  0
 12 26  1  0
 13 27  1  0
 13 28  1  0
 14 29  1  0
 14 30  1  0
 15 31  1  0
 15 32  1  0
 16 33  1  0
M  END
$$$$
1b9v_PocketFlow_13942
     RDKit          3D

 25 25  0  0  0  0  0  0  0  0999 V2000
   32.1427  -10.9104   65.1883 C   0  0  0  0  0  0  0  0  0  0  0  0
   30.9796  -10.9415   64.9247 C   0  0  0  0  0  0  0  0  0  0  0  0
   33.0462   -9.8799   64.7535 C   0  0  0  0  0  0  0  0  0  0  0  0
   30.5931  -10.2134   63.7856 C   0  0  0  0  0  0  0  0  0  0  0  0
   31.4350   -9.2847   63.1426 C   0  0  0  0  0  0  0  0  0  0  0  0
   32.7542   -9.1712   63.6712 C   0  0  0  0  0  0  0  0  0  0  0  0
   29.2028  -10.3084   63.2332 C   0  0  0  0  0  0  0  0  0  0  0  0
   28.6431  -11.3994   63.1085 O   0  0  0  0  0  0  0  0  0  0  0  0
   33.7247   -8.1651   63.1566 C   0  0  0  0  0  0  0  0  0  0  0  0
   33.3779   -6.7638   63.2012 C   0  0  0  0  0  0  0  0  0  0  0  0
   32.6745  -11.6645   66.5242 C   0  0  0  0  0  0  0  0  0  0  0  0
   32.1591  -11.8100   67.4020 O   0  0  0  0  0  0  0  0  0  0  0  0
   33.9695  -12.1843   66.3122 O   0  0  0  0  0  0  0  0  0  0  0  0
   32.1210   -6.6600   63.3046 F   0  0  0  0  0  0  0  0  0  0  0  0
   33.9385   -6.1828   64.3120 F   0  0  0  0  0  0  0  0  0  0  0  0
   33.7834   -6.1302   62.1190 F   0  0  0  0  0  0  0  0  0  0  0  0
   28.4164   -9.2503   63.3275 O   0  0  0  0  0  0  0  0  0  0  0  0
   30.0895  -11.8647   65.3229 O   0  0  0  0  0  0  0  0  0  0  0  0
   33.9717   -9.6810   65.3137 H   0  0  0  0  0  0  0  0  0  0  0  0
   31.0955   -8.6843   62.2857 H   0  0  0  0  0  0  0  0  0  0  0  0
   27.7246  -11.4455   62.7420 H   0  0  0  0  0  0  0  0  0  0  0  0
   34.6508   -8.2855   63.7378 H   0  0  0  0  0  0  0  0  0  0  0  0
   33.7838   -8.3856   62.0805 H   0  0  0  0  0  0  0  0  0  0  0  0
   34.4312  -12.6742   67.0381 H   0  0  0  0  0  0  0  0  0  0  0  0
   29.1426  -11.7924   65.0432 H   0  0  0  0  0  0  0  0  0  0  0  0
  4  7  1  0
  7  8  1  0
  6  9  1  0
  9 10  1  0
  1 11  1  0
 11 12  2  0
 11 13  1  0
 10 14  1  0
 10 15  1  0
 10 16  1  0
  7 17  2  0
  2 18  1  0
  1  2  2  0
  2  4  1  0
  4  5  2  0
  5  6  1  0
  6  3  2  0
  3  1  1  0
  3 19  1  0
  5 20  1  0
  8 21  1  0
  9 22  1  0
  9 23  1  0
 13 24  1  0
 18 25  1  0
M  END
$$$$
1b9v_PocketFlow_18669
     RDKit          3D

 26 27  0  0  0  0  0  0  0  0999 V2000
   33.3734  -11.1664   65.9861 C   0  0  0  0  0  0  0  0  0  0  0  0
   32.9327  -12.0436   66.3562 C   0  0  0  0  0  0  0  0  0  0  0  0
   32.8484  -10.0563   65.1806 C   0  0  0  0  0  0  0  0  0  0  0  0
   31.5056  -10.2196   64.8816 C   0  0  0  0  0  0  0  0  0  0  0  0
   30.9057   -9.2696   64.0436 C   0  0  0  0  0  0  0  0  0  0  0  0
   29.5317   -9.2036   63.9645 C   0  0  0  0  0  0  0  0  0  0  0  0
   31.5051  -12.2663   66.1618 C   0  0  0  0  0  0  0  0  0  0  0  0
   30.8547  -11.3374   65.3740 C   0  0  0  0  0  0  0  0  0  0  0  0
   28.6943  -10.3164   63.8813 C   0  0  0  0  0  0  0  0  0  0  0  0
   27.3331  -10.1291   63.5401 C   0  0  0  0  0  0  0  0  0  0  0  0
   27.0853   -8.7718   63.5136 N   0  0  0  0  0  0  0  0  0  0  0  0
   28.5854   -8.0324   63.7201 C   0  0  0  0  0  0  0  0  0  0  0  0
   31.2917   -7.7820   64.6602 C   0  0  0  0  0  0  0  0  0  0  0  0
   34.4348  -11.0569   66.2533 H   0  0  0  0  0  0  0  0  0  0  0  0
   33.5429  -12.7894   66.8867 H   0  0  0  0  0  0  0  0  0  0  0  0
   33.4507   -9.1961   64.8531 H   0  0  0  0  0  0  0  0  0  0  0  0
   30.9794  -13.1202   66.6141 H   0  0  0  0  0  0  0  0  0  0  0  0
   29.7926  -11.4896   65.1317 H   0  0  0  0  0  0  0  0  0  0  0  0
   29.0862  -11.3252   64.0781 H   0  0  0  0  0  0  0  0  0  0  0  0
   26.6023  -10.9247   63.3328 H   0  0  0  0  0  0  0  0  0  0  0  0
   26.1738   -8.3076   63.3928 H   0  0  0  0  0  0  0  0  0  0  0  0
   28.5721   -7.3514   64.5838 H   0  0  0  0  0  0  0  0  0  0  0  0
   28.8809   -7.4168   62.8577 H   0  0  0  0  0  0  0  0  0  0  0  0
   31.2802   -7.8264   65.7592 H   0  0  0  0  0  0  0  0  0  0  0  0
   32.2950   -7.4913   64.3155 H   0  0  0  0  0  0  0  0  0  0  0  0
   30.5563   -7.0401   64.3155 H   0  0  0  0  0  0  0  0  0  0  0  0
  4  5  1  0
  5  6  2  3
  6  9  1  0
  9 10  2  0
 10 11  1  0
  6 12  1  0
 11 12  1  0
  5 13  1  0
  1  2  2  0
  2  7  1  0
  7  8  2  0
  8  4  1  0
  4  3  2  0
  3  1  1  0
  1 14  1  0
  2 15  1  0
  3 16  1  0
  7 17  1  0
  8 18  1  0
  9 19  1  0
 10 20  1  0
 11 21  1  0
 12 22  1  0
 12 23  1  0
 13 24  1  0
 13 25  1  0
 13 26  1  0
M  END
$$$$
1b9v_PocketFlow_29328
     RDKit          3D

 24 25  0  0  0  0  0  0  0  0999 V2000
   33.3734  -11.1664   65.9861 C   0  0  0  0  0  0  0  0  0  0  0  0
   32.9327  -12.0436   66.3562 C   0  0  0  0  0  0  0  0  0  0  0  0
   32.8484  -10.0563   65.1806 C   0  0  0  0  0  0  0  0  0  0  0  0
   33.6158   -8.9773   64.6867 C   0  0  0  0  0  0  0  0  0  0  0  0
   31.5019  -12.3337   66.0282 C   0  0  0  0  0  0  0  0  0  0  0  0
   30.9013  -11.4957   65.1489 C   0  0  0  0  0  0  0  0  0  0  0  0
   31.6134  -10.4006   64.6691 C   0  0  0  0  0  0  0  0  0  0  0  0
   34.9630   -8.8579   64.4754 C   0  0  0  0  0  0  0  0  0  0  0  0
   32.7953   -7.8497   64.1527 C   0  0  0  0  0  0  0  0  0  0  0  0
   33.4081   -6.6712   63.6207 C   0  0  0  0  0  0  0  0  0  0  0  0
   35.5139   -7.6619   64.0558 N   0  0  0  0  0  0  0  0  0  0  0  0
   34.8410   -6.6696   63.6933 C   0  0  0  0  0  0  0  0  0  0  0  0
   29.5970  -11.7888   64.6491 C   0  0  0  0  0  0  0  0  0  0  0  0
   29.3909  -12.0088   63.3943 O   0  0  0  0  0  0  0  0  0  0  0  0
   28.7055  -12.3883   65.4756 O   0  0  0  0  0  0  0  0  0  0  0  0
   34.4348  -11.0569   66.2533 H   0  0  0  0  0  0  0  0  0  0  0  0
   33.5146  -12.7407   66.9770 H   0  0  0  0  0  0  0  0  0  0  0  0
   30.9657  -13.1827   66.4773 H   0  0  0  0  0  0  0  0  0  0  0  0
   31.1806   -9.7931   63.8606 H   0  0  0  0  0  0  0  0  0  0  0  0
   35.6167   -9.7267   64.6420 H   0  0  0  0  0  0  0  0  0  0  0  0
   31.6981   -7.9266   64.1686 H   0  0  0  0  0  0  0  0  0  0  0  0
   32.8305   -5.8384   63.1930 H   0  0  0  0  0  0  0  0  0  0  0  0
   35.3763   -5.7494   63.4163 H   0  0  0  0  0  0  0  0  0  0  0  0
   28.4773  -12.2102   63.0706 H   0  0  0  0  0  0  0  0  0  0  0  0
  3  4  1  0
  6 13  1  0
 13 14  1  0
 13 15  2  0
  4  8  2  0
  8 11  1  0
 11 12  2  0
 12 10  1  0
 10  9  2  0
  9  4  1  0
  1  2  2  0
  2  5  1  0
  5  6  2  0
  6  7  1  0
  7  3  2  0
  3  1  1  0
  1 16  1  0
  2 17  1  0
  5 18  1  0
  7 19  1  0
  8 20  1  0
  9 21  1  0
 10 22  1  0
 12 23  1  0
 14 24  1  0
M  END
$$$$
1b9v_PocketFlow_29342
     RDKit          3D

 47 47  0  0  0  0  0  0  0  0999 V2000
   33.3734  -11.1664   65.9861 C   0  0  0  0  0  0  0  0  0  0  0  0
   32.9327  -12.0436   66.3562 C   0  0  0  0  0  0  0  0  0  0  0  0
   34.5724  -10.6676   66.0819 C   0  0  0  0  0  0  0  0  0  0  0  0
   31.5080  -12.4633   66.2902 C   0  0  0  0  0  0  0  0  0  0  0  0
   30.6968  -11.6364   65.5677 C   0  0  0  0  0  0  0  0  0  0  0  0
   31.2229  -10.4673   64.9873 C   0  0  0  0  0  0  0  0  0  0  0  0
   32.5978  -10.1988   65.1855 C   0  0  0  0  0  0  0  0  0  0  0  0
   29.3057  -11.9759   65.3785 C   0  0  1  0  0  0  0  0  0  0  0  0
   28.5758  -12.2752   66.2317 O   0  0  0  0  0  0  0  0  0  0  0  0
   28.7942  -11.6571   64.1405 N   0  0  0  0  0  0  0  0  0  0  0  0
   27.8670  -11.4963   63.7601 C   0  0  0  0  0  0  0  0  0  0  0  0
   34.9566   -9.4612   66.1784 O   0  0  0  0  0  0  0  0  0  0  0  0
   33.6483  -13.0498   67.1497 O   0  0  0  0  0  0  0  0  0  0  0  0
   27.5078  -10.1689   63.1423 C   0  0  0  0  0  0  0  0  0  0  0  0
   28.5633   -9.4171   63.0454 O   0  0  0  0  0  0  0  0  0  0  0  0
   31.0384  -13.5790   66.7486 O   0  0  0  0  0  0  0  0  0  0  0  0
   28.6186   -8.1549   63.7174 C   0  0  0  0  0  0  0  0  0  0  0  0
   29.7472   -7.3159   63.3984 C   0  0  0  0  0  0  0  0  0  0  0  0
   31.0636   -7.5748   63.8460 C   0  0  0  0  0  0  0  0  0  0  0  0
   32.1329   -6.6940   63.5388 C   0  0  0  0  0  0  0  0  0  0  0  0
   33.5136   -7.0302   63.9048 C   0  0  0  0  0  0  0  0  0  0  0  0
   31.9005   -5.5835   62.7360 C   0  0  0  0  0  0  0  0  0  0  0  0
   34.9923  -11.1532   66.9752 H   0  0  0  0  0  0  0  0  0  0  0  0
   34.8758  -10.8288   65.0369 H   0  0  0  0  0  0  0  0  0  0  0  0
   30.5881   -9.7868   64.4008 H   0  0  0  0  0  0  0  0  0  0  0  0
   33.0712   -9.3022   64.7588 H   0  0  0  0  0  0  0  0  0  0  0  0
   29.4925  -13.0460   65.5519 H   0  0  0  0  0  0  0  0  0  0  0  0
   29.0026  -12.1002   67.1077 H   0  0  0  0  0  0  0  0  0  0  0  0
   29.2864  -10.7816   63.9120 H   0  0  0  0  0  0  0  0  0  0  0  0
   27.7104  -12.2577   62.9818 H   0  0  0  0  0  0  0  0  0  0  0  0
   27.2260  -11.5323   64.6533 H   0  0  0  0  0  0  0  0  0  0  0  0
   35.0349   -9.2153   67.1342 H   0  0  0  0  0  0  0  0  0  0  0  0
   33.1733  -13.8574   67.4695 H   0  0  0  0  0  0  0  0  0  0  0  0
   27.0884  -10.3369   62.1394 H   0  0  0  0  0  0  0  0  0  0  0  0
   26.7668   -9.6655   63.7807 H   0  0  0  0  0  0  0  0  0  0  0  0
   30.0731  -13.7818   66.6638 H   0  0  0  0  0  0  0  0  0  0  0  0
   27.8456   -7.8430   64.4351 H   0  0  0  0  0  0  0  0  0  0  0  0
   29.5751   -6.4271   62.7736 H   0  0  0  0  0  0  0  0  0  0  0  0
   31.0136   -7.6330   64.9433 H   0  0  0  0  0  0  0  0  0  0  0  0
   31.3326   -8.4818   63.2848 H   0  0  0  0  0  0  0  0  0  0  0  0
   31.9548   -6.2445   64.5268 H   0  0  0  0  0  0  0  0  0  0  0  0
   33.6073   -7.0530   65.0006 H   0  0  0  0  0  0  0  0  0  0  0  0
   33.7718   -8.0175   63.4941 H   0  0  0  0  0  0  0  0  0  0  0  0
   34.1968   -6.2722   63.4941 H   0  0  0  0  0  0  0  0  0  0  0  0
   31.7165   -4.7042   63.3708 H   0  0  0  0  0  0  0  0  0  0  0  0
   32.7796   -5.3997   62.1009 H   0  0  0  0  0  0  0  0  0  0  0  0
   31.0214   -5.7677   62.1009 H   0  0  0  0  0  0  0  0  0  0  0  0
  1  3  1  0
  5  8  1  0
  8  9  1  0
  8 10  1  0
 10 11  1  0
  3 12  1  0
  2 13  1  0
 11 14  1  0
 14 15  1  0
  4 16  1  0
 15 17  1  0
 17 18  2  3
 18 19  1  0
 19 20  1  0
 20 21  1  0
 20 22  1  0
  1  2  2  0
  2  4  1  0
  4  5  2  0
  5  6  1  0
  6  7  2  0
  7  1  1  0
  3 23  1  0
  3 24  1  0
  6 25  1  0
  7 26  1  0
  8 27  1  6
  9 28  1  0
 10 29  1  0
 11 30  1  0
 11 31  1  0
 12 32  1  0
 13 33  1  0
 14 34  1  0
 14 35  1  0
 16 36  1  0
 17 37  1  0
 18 38  1  0
 19 39  1  0
 19 40  1  0
 20 41  1  0
 21 42  1  0
 21 43  1  0
 21 44  1  0
 22 45  1  0
 22 46  1  0
 22 47  1  0
M  END
$$$$
1b9v_PocketFlow_5759
     RDKit          3D

 37 37  0  0  0  0  0  0  0  0999 V2000
   33.3734  -11.1664   65.9861 C   0  0  0  0  0  0  0  0  0  0  0  0
   32.9775  -10.0977   65.4689 C   0  0  0  0  0  0  0  0  0  0  0  0
   31.5984   -9.8939   65.2720 C   0  0  0  0  0  0  0  0  0  0  0  0
   30.8234  -10.6552   65.8772 C   0  0  0  0  0  0  0  0  0  0  0  0
   32.5954  -11.9989   66.7642 C   0  0  0  0  0  0  0  0  0  0  0  0
   31.2360  -11.7887   66.6332 C   0  0  0  0  0  0  0  0  0  0  0  0
   33.8963   -9.2965   64.6836 N   0  0  0  0  0  0  0  0  0  0  0  0
   33.1294  -13.1614   67.5329 C   0  0  0  0  0  0  0  0  0  0  0  0
   33.1482  -13.1133   68.7529 O   0  0  0  0  0  0  0  0  0  0  0  0
   33.6341   -8.4127   63.6561 C   0  0  0  0  0  0  0  0  0  0  0  0
   34.3779   -7.4035   63.4213 C   0  0  0  0  0  0  0  0  0  0  0  0
   33.2285   -9.1385   62.4386 C   0  0  0  0  0  0  0  0  0  0  0  0
   32.8670   -8.3897   61.3212 C   0  0  0  0  0  0  0  0  0  0  0  0
   31.5339   -7.7771   61.5665 C   0  0  0  0  0  0  0  0  0  0  0  0
   31.5453   -6.5320   62.2634 C   0  0  0  0  0  0  0  0  0  0  0  0
   31.6103   -6.6030   63.6118 C   0  0  0  0  0  0  0  0  0  0  0  0
   34.4173  -11.4636   65.8074 H   0  0  0  0  0  0  0  0  0  0  0  0
   31.2234   -9.0973   64.6126 H   0  0  0  0  0  0  0  0  0  0  0  0
   29.7463  -10.4381   65.8248 H   0  0  0  0  0  0  0  0  0  0  0  0
   30.5037  -12.4683   67.0935 H   0  0  0  0  0  0  0  0  0  0  0  0
   34.8911   -9.4025   64.9286 H   0  0  0  0  0  0  0  0  0  0  0  0
   32.5222  -14.0357   67.2556 H   0  0  0  0  0  0  0  0  0  0  0  0
   34.1938  -13.1894   67.2569 H   0  0  0  0  0  0  0  0  0  0  0  0
   32.8138  -13.9689   69.1221 H   0  0  0  0  0  0  0  0  0  0  0  0
   34.1350   -6.7222   62.5926 H   0  0  0  0  0  0  0  0  0  0  0  0
   35.2622   -7.2145   64.0476 H   0  0  0  0  0  0  0  0  0  0  0  0
   34.0721   -9.7798   62.1437 H   0  0  0  0  0  0  0  0  0  0  0  0
   32.3066   -9.6650   62.7267 H   0  0  0  0  0  0  0  0  0  0  0  0
   33.6117   -7.5985   61.1495 H   0  0  0  0  0  0  0  0  0  0  0  0
   32.8229   -9.0388   60.4342 H   0  0  0  0  0  0  0  0  0  0  0  0
   31.0518   -7.6144   60.5912 H   0  0  0  0  0  0  0  0  0  0  0  0
   30.9950   -8.4810   62.2178 H   0  0  0  0  0  0  0  0  0  0  0  0
   32.4182   -5.9605   61.9150 H   0  0  0  0  0  0  0  0  0  0  0  0
   30.5768   -6.0609   62.0399 H   0  0  0  0  0  0  0  0  0  0  0  0
   30.9294   -5.8593   64.0514 H   0  0  0  0  0  0  0  0  0  0  0  0
   31.3147   -7.6102   63.9406 H   0  0  0  0  0  0  0  0  0  0  0  0
   32.6397   -6.3973   63.9406 H   0  0  0  0  0  0  0  0  0  0  0  0
  2  7  1  0
  5  8  1  0
  8  9  1  0
  7 10  1  0
 10 11  2  0
 10 12  1  0
 12 13  1  0
 13 14  1  0
 14 15  1  0
 15 16  1  0
  1  2  2  0
  2  3  1  0
  3  4  2  0
  4  6  1  0
  6  5  2  0
  5  1  1  0
  1 17  1  0
  3 18  1  0
  4 19  1  0
  6 20  1  0
  7 21  1  0
  8 22  1  0
  8 23  1  0
  9 24  1  0
 11 25  1  0
 11 26  1  0
 12 27  1  0
 12 28  1  0
 13 29  1  0
 13 30  1  0
 14 31  1  0
 14 32  1  0
 15 33  1  0
 15 34  1  0
 16 35  1  0
 16 36  1  0
 16 37  1  0
M  END
$$$$
1b9v_TargetDiff_106655
     RDKit          3D

 47 49  0  0  0  0  0  0  0  0999 V2000
   33.1770   -9.3489   64.3192 N   0  0  0  0  0  0  0  0  0  0  0  0
   30.2178  -10.1591   58.3265 N   0  0  0  0  0  0  0  0  0  0  0  0
   34.2430  -10.3847   64.4720 C   0  0  0  0  0  0  0  0  0  0  0  0
   34.0539  -10.9214   65.8350 C   0  0  1  0  0  0  0  0  0  0  0  0
   27.7483  -12.3691   64.0499 O   0  0  0  0  0  0  0  0  0  0  0  0
   28.9947   -8.4830   64.0213 C   0  0  2  0  0  0  0  0  0  0  0  0
   30.9256   -9.3406   58.9322 C   0  0  0  0  0  0  0  0  0  0  0  0
   28.4698  -11.2179   64.1913 C   0  0  2  0  0  0  0  0  0  0  0  0
   28.1973   -9.7723   63.8024 C   0  0  2  0  0  0  0  0  0  0  0  0
   33.7664   -8.0440   62.3302 N   0  0  0  0  0  0  0  0  0  0  0  0
   27.2491   -9.6854   62.7449 O   0  0  0  0  0  0  0  0  0  0  0  0
   30.6157   -6.6210   64.1790 O   0  0  0  0  0  0  0  0  0  0  0  0
   32.6113  -10.6109   66.1786 C   0  0  0  0  0  0  0  0  0  0  0  0
   28.2843   -7.5384   64.8929 O   0  0  0  0  0  0  0  0  0  0  0  0
   31.1906   -8.5313   61.4207 N   0  0  0  0  0  0  0  0  0  0  0  0
   34.2398  -12.3287   65.9776 O   0  0  0  0  0  0  0  0  0  0  0  0
   30.1371  -12.1001   62.7616 O   0  0  0  0  0  0  0  0  0  0  0  0
   31.9212   -8.5848   59.2330 N   0  0  0  0  0  0  0  0  0  0  0  0
   31.4550   -8.3870   62.7313 C   0  0  2  0  0  0  0  0  0  0  0  0
   31.9939   -9.9107   64.9910 C   0  0  2  0  0  0  0  0  0  0  0  0
   32.7722   -8.5306   63.1660 C   0  0  1  0  0  0  0  0  0  0  0  0
   30.7489  -10.3600   64.4195 O   0  0  0  0  0  0  0  0  0  0  0  0
   30.3660   -7.9165   63.7204 C   0  0  2  0  0  0  0  0  0  0  0  0
   30.0279  -11.5079   64.0509 C   0  0  1  0  0  0  0  0  0  0  0  0
   32.1471   -8.2778   60.5295 C   0  0  0  0  0  0  0  0  0  0  0  0
   33.3890   -7.8465   60.9165 C   0  0  0  0  0  0  0  0  0  0  0  0
   34.1211  -11.1800   63.7219 H   0  0  0  0  0  0  0  0  0  0  0  0
   35.2507   -9.9687   64.3253 H   0  0  0  0  0  0  0  0  0  0  0  0
   34.8127  -10.4641   66.4869 H   0  0  0  0  0  0  0  0  0  0  0  0
   27.5227  -12.7291   64.9441 H   0  0  0  0  0  0  0  0  0  0  0  0
   29.4783   -8.9316   64.9016 H   0  0  0  0  0  0  0  0  0  0  0  0
   27.9041  -11.0619   65.1217 H   0  0  0  0  0  0  0  0  0  0  0  0
   28.0923   -9.6236   64.8872 H   0  0  0  0  0  0  0  0  0  0  0  0
   26.3385   -9.6019   63.1242 H   0  0  0  0  0  0  0  0  0  0  0  0
   30.6167   -6.6158   65.1690 H   0  0  0  0  0  0  0  0  0  0  0  0
   32.0672  -11.5439   66.3873 H   0  0  0  0  0  0  0  0  0  0  0  0
   32.5583   -9.9712   67.0719 H   0  0  0  0  0  0  0  0  0  0  0  0
   28.4576   -7.7689   65.8400 H   0  0  0  0  0  0  0  0  0  0  0  0
   34.2706  -12.5617   66.9393 H   0  0  0  0  0  0  0  0  0  0  0  0
   30.3158  -13.0691   62.8576 H   0  0  0  0  0  0  0  0  0  0  0  0
   32.5389   -8.2179   58.4950 H   0  0  0  0  0  0  0  0  0  0  0  0
   31.6226   -7.3106   62.5790 H   0  0  0  0  0  0  0  0  0  0  0  0
   31.2699   -9.0942   65.1292 H   0  0  0  0  0  0  0  0  0  0  0  0
   32.4696   -7.8765   63.9970 H   0  0  0  0  0  0  0  0  0  0  0  0
   30.4541   -8.9143   64.1750 H   0  0  0  0  0  0  0  0  0  0  0  0
   30.5066  -12.2251   64.7339 H   0  0  0  0  0  0  0  0  0  0  0  0
   34.0776   -7.3718   60.2020 H   0  0  0  0  0  0  0  0  0  0  0  0
  1  3  1  0
  1 20  1  0
  1 21  1  0
  2  7  3  0
  3  4  1  0
  4 13  1  0
  4 16  1  0
  5  8  1  0
  6  9  1  0
  6 14  1  0
  6 23  1  0
  7 18  1  0
  8  9  1  0
  8 24  1  0
  9 11  1  0
 10 21  1  0
 10 26  2  0
 12 23  1  0
 13 20  1  0
 15 19  1  0
 15 25  2  0
 17 24  1  0
 18 25  1  0
 19 21  1  0
 19 23  1  0
 20 22  1  0
 22 24  1  0
 25 26  1  0
  3 27  1  0
  3 28  1  0
  4 29  1  1
  5 30  1  0
  6 31  1  6
  8 32  1  1
  9 33  1  1
 11 34  1  0
 12 35  1  0
 13 36  1  0
 13 37  1  0
 14 38  1  0
 16 39  1  0
 17 40  1  0
 18 41  1  0
 19 42  1  1
 20 43  1  1
 21 44  1  1
 23 45  1  1
 24 46  1  1
 26 47  1  0
M  END
$$$$
1b9v_TargetDiff_115092
     RDKit          3D

 32 32  0  0  0  0  0  0  0  0999 V2000
   33.0444  -11.0051   65.7729 C   0  0  0  0  0  0  0  0  0  0  0  0
   31.6377   -8.8627   63.0157 N   0  0  0  0  0  0  0  0  0  0  0  0
   29.8326  -11.8352   62.5849 O   0  0  0  0  0  0  0  0  0  0  0  0
   29.9244  -11.7117   65.4624 O   0  0  0  0  0  0  0  0  0  0  0  0
   32.5450   -9.5426   63.9599 C   0  0  1  0  0  0  0  0  0  0  0  0
   34.0287   -9.3968   64.2755 C   0  0  0  0  0  0  0  0  0  0  0  0
   34.3424  -10.4096   65.3280 O   0  0  0  0  0  0  0  0  0  0  0  0
   32.6286   -6.4619   61.6572 C   0  0  0  0  0  0  0  0  0  0  0  0
   28.5022   -9.9695   62.9548 O   0  0  0  0  0  0  0  0  0  0  0  0
   31.9679  -10.7240   64.6720 C   0  0  2  0  0  0  0  0  0  0  0  0
   31.2993   -6.6400   62.1684 C   0  0  1  0  0  0  0  0  0  0  0  0
   30.3533  -10.6050   64.6113 C   0  0  1  0  0  0  0  0  0  0  0  0
   30.8507   -8.0377   62.2238 C   0  0  0  0  0  0  0  0  0  0  0  0
   29.6545  -10.6166   63.2199 C   0  0  0  0  0  0  0  0  0  0  0  0
   30.8451   -5.8213   63.1564 O   0  0  0  0  0  0  0  0  0  0  0  0
   33.1612  -12.0903   65.9096 H   0  0  0  0  0  0  0  0  0  0  0  0
   32.7323  -10.5592   66.7288 H   0  0  0  0  0  0  0  0  0  0  0  0
   32.0842   -9.3011   62.1976 H   0  0  0  0  0  0  0  0  0  0  0  0
   30.0240  -11.4546   66.4132 H   0  0  0  0  0  0  0  0  0  0  0  0
   32.7822  -10.2931   63.1915 H   0  0  0  0  0  0  0  0  0  0  0  0
   34.6291   -9.5879   63.3739 H   0  0  0  0  0  0  0  0  0  0  0  0
   34.2626   -8.3792   64.6217 H   0  0  0  0  0  0  0  0  0  0  0  0
   33.3343   -6.3674   62.4957 H   0  0  0  0  0  0  0  0  0  0  0  0
   32.9044   -7.3311   61.0421 H   0  0  0  0  0  0  0  0  0  0  0  0
   32.6659   -5.5507   61.0421 H   0  0  0  0  0  0  0  0  0  0  0  0
   28.3173   -9.0941   63.3785 H   0  0  0  0  0  0  0  0  0  0  0  0
   31.8491  -11.7778   64.3798 H   0  0  0  0  0  0  0  0  0  0  0  0
   30.7222   -6.1859   61.3494 H   0  0  0  0  0  0  0  0  0  0  0  0
   30.0488   -9.6000   64.9389 H   0  0  0  0  0  0  0  0  0  0  0  0
   30.8524   -8.4402   61.2001 H   0  0  0  0  0  0  0  0  0  0  0  0
   29.8496   -8.0277   62.6796 H   0  0  0  0  0  0  0  0  0  0  0  0
   31.0637   -6.2153   64.0380 H   0  0  0  0  0  0  0  0  0  0  0  0
  1  7  1  0
  1 10  1  0
  2  5  1  0
  2 13  1  0
  3 14  2  0
  4 12  1  0
  5  6  1  0
  5 10  1  0
  6  7  1  0
  8 11  1  0
  9 14  1  0
 10 12  1  0
 11 13  1  0
 11 15  1  0
 12 14  1  0
  1 16  1  0
  1 17  1  0
  2 18  1  0
  4 19  1  0
  5 20  1  1
  6 21  1  0
  6 22  1  0
  8 23  1  0
  8 24  1  0
  8 25  1  0
  9 26  1  0
 10 27  1  6
 11 28  1  6
 12 29  1  1
 13 30  1  0
 13 31  1  0
 15 32  1  0
M  END
$$$$
1b9v_TargetDiff_23780
     RDKit          3D

 27 26  0  0  0  0  0  0  0  0999 V2000
   31.2678   -9.4276   62.8532 C   0  0  1  0  0  0  0  0  0  0  0  0
   32.2467   -7.4462   61.5774 C   0  0  0  0  0  0  0  0  0  0  0  0
   34.2192   -9.7444   65.0318 C   0  0  0  0  0  0  0  0  0  0  0  0
   29.2580  -10.6460   63.2933 C   0  0  0  0  0  0  0  0  0  0  0  0
   32.1553   -8.9302   63.9472 C   0  0  0  0  0  0  0  0  0  0  0  0
   31.2649   -6.1170   62.0366 S   0  0  0  0  0  0  0  0  0  0  0  0
   33.6200   -9.2679   63.6931 N   0  0  0  0  0  0  0  0  0  0  0  0
   29.9234  -11.5452   62.3955 O   0  0  0  0  0  0  0  0  0  0  0  0
   29.8213   -9.3155   63.1427 C   0  0  0  0  0  0  0  0  0  0  0  0
   31.6319   -8.7777   61.5690 C   0  0  0  0  0  0  0  0  0  0  0  0
   31.4449  -10.5103   62.7727 H   0  0  0  0  0  0  0  0  0  0  0  0
   32.6135   -7.2474   60.5596 H   0  0  0  0  0  0  0  0  0  0  0  0
   33.0205   -7.5025   62.3572 H   0  0  0  0  0  0  0  0  0  0  0  0
   33.6570   -9.2973   65.8649 H   0  0  0  0  0  0  0  0  0  0  0  0
   34.1550  -10.8408   65.0927 H   0  0  0  0  0  0  0  0  0  0  0  0
   35.2730   -9.4349   65.0927 H   0  0  0  0  0  0  0  0  0  0  0  0
   28.1838  -10.6194   63.0580 H   0  0  0  0  0  0  0  0  0  0  0  0
   29.3951  -10.9899   64.3291 H   0  0  0  0  0  0  0  0  0  0  0  0
   32.0504   -7.8377   64.0204 H   0  0  0  0  0  0  0  0  0  0  0  0
   31.8505   -9.4230   64.8822 H   0  0  0  0  0  0  0  0  0  0  0  0
   31.2090   -6.0413   63.4034 H   0  0  0  0  0  0  0  0  0  0  0  0
   34.1217   -8.4324   63.3598 H   0  0  0  0  0  0  0  0  0  0  0  0
   30.4240  -12.2217   62.9169 H   0  0  0  0  0  0  0  0  0  0  0  0
   29.6756   -8.7472   64.0732 H   0  0  0  0  0  0  0  0  0  0  0  0
   29.3188   -8.7938   62.3148 H   0  0  0  0  0  0  0  0  0  0  0  0
   32.3364   -9.4512   61.0591 H   0  0  0  0  0  0  0  0  0  0  0  0
   30.6598   -8.6080   61.0830 H   0  0  0  0  0  0  0  0  0  0  0  0
  1  5  1  0
  1  9  1  0
  1 10  1  0
  2  6  1  0
  2 10  1  0
  3  7  1  0
  4  8  1  0
  4  9  1  0
  5  7  1  0
  1 11  1  6
  2 12  1  0
  2 13  1  0
  3 14  1  0
  3 15  1  0
  3 16  1  0
  4 17  1  0
  4 18  1  0
  5 19  1  0
  5 20  1  0
  6 21  1  0
  7 22  1  0
  8 23  1  0
  9 24  1  0
  9 25  1  0
 10 26  1  0
 10 27  1  0
M  END
$$$$
1b9v_TargetDiff_24225
     RDKit          3D

 53 54  0  0  0  0  0  0  0  0999 V2000
   32.0951   -7.5528   64.1236 C   0  0  1  0  0  0  0  0  0  0  0  0
   32.2154   -6.2142   63.3979 C   0  0  2  0  0  0  0  0  0  0  0  0
   29.3311  -11.5754   64.7993 C   0  0  0  0  0  0  0  0  0  0  0  0
   31.7114  -12.3035   66.5978 C   0  0  0  0  0  0  0  0  0  0  0  0
   30.8001   -5.7842   62.8086 C   0  0  0  0  0  0  0  0  0  0  0  0
   34.0172   -7.6233   62.6115 C   0  0  0  0  0  0  0  0  0  0  0  0
   30.8456   -9.7230   64.2799 C   0  0  2  0  0  0  0  0  0  0  0  0
   31.0874  -13.5067   66.5731 O   0  0  0  0  0  0  0  0  0  0  0  0
   30.3920  -10.3648   60.6800 N   0  0  0  0  0  0  0  0  0  0  0  0
   30.1581   -7.7610   65.5967 O   0  0  0  0  0  0  0  0  0  0  0  0
   32.6888   -8.9160   60.8485 N   0  0  0  0  0  0  0  0  0  0  0  0
   31.5600  -10.1707   63.0438 C   0  0  0  0  0  0  0  0  0  0  0  0
   30.0337  -10.2216   57.3767 N   0  0  0  0  0  0  0  0  0  0  0  0
   33.1092   -6.4471   62.2205 N   0  0  0  0  0  0  0  0  0  0  0  0
   30.9966   -9.8695   59.5900 C   0  0  1  0  0  0  0  0  0  0  0  0
   31.7100  -11.7575   65.1788 C   0  0  0  0  0  0  0  0  0  0  0  0
   29.9602   -9.8955   58.6175 C   0  0  0  0  0  0  0  0  0  0  0  0
   31.9554   -8.8788   59.6601 C   0  0  0  0  0  0  0  0  0  0  0  0
   31.0432   -8.3661   64.7881 C   0  0  2  0  0  0  0  0  0  0  0  0
   32.0961   -9.0425   62.1588 C   0  0  1  0  0  0  0  0  0  0  0  0
   32.9689   -8.4822   63.3095 C   0  0  2  0  0  0  0  0  0  0  0  0
   30.5706  -10.8467   65.1036 N   0  0  0  0  0  0  0  0  0  0  0  0
   32.1842   -7.0599   65.1029 H   0  0  0  0  0  0  0  0  0  0  0  0
   32.5900   -5.4434   64.0875 H   0  0  0  0  0  0  0  0  0  0  0  0
   28.8368  -11.8660   65.7380 H   0  0  0  0  0  0  0  0  0  0  0  0
   28.6592  -10.9285   64.2161 H   0  0  0  0  0  0  0  0  0  0  0  0
   29.5696  -12.4770   64.2161 H   0  0  0  0  0  0  0  0  0  0  0  0
   31.1728  -11.6149   67.2655 H   0  0  0  0  0  0  0  0  0  0  0  0
   32.7408  -12.4090   66.9708 H   0  0  0  0  0  0  0  0  0  0  0  0
   30.1069   -5.5736   63.6363 H   0  0  0  0  0  0  0  0  0  0  0  0
   30.9189   -4.8816   62.1912 H   0  0  0  0  0  0  0  0  0  0  0  0
   30.3967   -6.6003   62.1912 H   0  0  0  0  0  0  0  0  0  0  0  0
   34.4490   -8.1255   61.7332 H   0  0  0  0  0  0  0  0  0  0  0  0
   34.9055   -7.3682   63.2080 H   0  0  0  0  0  0  0  0  0  0  0  0
   29.8453   -9.3348   64.0378 H   0  0  0  0  0  0  0  0  0  0  0  0
   30.9277  -13.8147   67.5003 H   0  0  0  0  0  0  0  0  0  0  0  0
   30.8477   -9.9915   61.5249 H   0  0  0  0  0  0  0  0  0  0  0  0
   29.3990  -10.0911   60.6761 H   0  0  0  0  0  0  0  0  0  0  0  0
   30.4046   -7.9295   66.5406 H   0  0  0  0  0  0  0  0  0  0  0  0
   33.3322   -9.7148   60.7547 H   0  0  0  0  0  0  0  0  0  0  0  0
   32.4108  -10.7972   63.3500 H   0  0  0  0  0  0  0  0  0  0  0  0
   30.8159  -10.7081   62.4377 H   0  0  0  0  0  0  0  0  0  0  0  0
   29.1906  -10.1926   56.7858 H   0  0  0  0  0  0  0  0  0  0  0  0
   32.5513   -6.6857   61.3882 H   0  0  0  0  0  0  0  0  0  0  0  0
   31.8665  -10.4611   59.2686 H   0  0  0  0  0  0  0  0  0  0  0  0
   32.6463  -11.2172   64.9754 H   0  0  0  0  0  0  0  0  0  0  0  0
   31.6331  -12.5641   64.4349 H   0  0  0  0  0  0  0  0  0  0  0  0
   28.9634   -9.5970   58.9743 H   0  0  0  0  0  0  0  0  0  0  0  0
   31.4563   -7.9013   59.5859 H   0  0  0  0  0  0  0  0  0  0  0  0
   32.6603   -9.0420   58.8316 H   0  0  0  0  0  0  0  0  0  0  0  0
   31.4716   -8.7118   65.7405 H   0  0  0  0  0  0  0  0  0  0  0  0
   31.2402   -8.6478   61.5917 H   0  0  0  0  0  0  0  0  0  0  0  0
   33.4044   -9.2663   63.9464 H   0  0  0  0  0  0  0  0  0  0  0  0
  1  2  1  0
  1 19  1  0
  1 21  1  0
  2  5  1  0
  2 14  1  0
  3 22  1  0
  4  8  1  0
  4 16  1  0
  6 14  1  0
  6 21  1  0
  7 12  1  0
  7 19  1  0
  7 22  1  0
  9 15  1  0
 10 19  1  0
 11 18  1  0
 11 20  1  0
 12 20  1  0
 13 17  2  3
 15 17  1  0
 15 18  1  0
 16 22  1  0
 20 21  1  0
  1 23  1  1
  2 24  1  1
  3 25  1  0
  3 26  1  0
  3 27  1  0
  4 28  1  0
  4 29  1  0
  5 30  1  0
  5 31  1  0
  5 32  1  0
  6 33  1  0
  6 34  1  0
  7 35  1  6
  8 36  1  0
  9 37  1  0
  9 38  1  0
 10 39  1  0
 11 40  1  0
 12 41  1  0
 12 42  1  0
 13 43  1  0
 14 44  1  0
 15 45  1  6
 16 46  1  0
 16 47  1  0
 17 48  1  0
 18 49  1  0
 18 50  1  0
 19 51  1  1
 20 52  1  6
 21 53  1  1
M  END
$$$$
1b9v_TargetDiff_36786
     RDKit          3D

 52 55  0  0  0  0  0  0  0  0999 V2000
   31.2131  -11.2747   64.8653 C   0  0  0  0  0  0  0  0  0  0  0  0
   31.0404   -8.9312   64.2977 C   0  0  2  0  0  0  0  0  0  0  0  0
   32.0217  -10.0484   64.3499 C   0  0  1  0  0  0  0  0  0  0  0  0
   33.8304   -8.4499   64.1198 C   0  0  0  0  0  0  0  0  0  0  0  0
   30.0277   -6.4253   64.0913 O   0  0  0  0  0  0  0  0  0  0  0  0
   32.9713   -8.1786   62.9161 C   0  0  2  0  0  0  0  0  0  0  0  0
   30.8721   -6.7437   63.2407 C   0  0  0  0  0  0  0  0  0  0  0  0
   29.7352  -11.0533   64.3219 C   0  0  1  0  0  0  0  0  0  0  0  0
   31.2321   -5.8687   62.0972 C   0  0  0  0  0  0  0  0  0  0  0  0
   29.6495   -9.4849   64.4909 C   0  0  0  0  0  0  0  0  0  0  0  0
   31.8836   -8.7043   62.0533 C   0  0  0  0  0  0  0  0  0  0  0  0
   33.5213  -11.5327   66.4132 C   0  0  0  0  0  0  0  0  0  0  0  0
   28.5244  -11.4751   63.4932 C   0  0  0  0  0  0  0  0  0  0  0  0
   34.1545   -9.1208   62.7646 C   0  0  0  0  0  0  0  0  0  0  0  0
   31.8516   -7.8770   60.8137 C   0  0  0  0  0  0  0  0  0  0  0  0
   34.1902  -10.5822   65.4484 C   0  0  0  0  0  0  0  0  0  0  0  0
   34.0822  -12.8098   66.3617 O   0  0  0  0  0  0  0  0  0  0  0  0
   28.2036  -12.7332   63.4391 N   0  0  0  0  0  0  0  0  0  0  0  0
   27.7637  -10.5491   63.0351 O   0  0  0  0  0  0  0  0  0  0  0  0
   33.4456   -6.8898   62.2285 C   0  0  0  0  0  0  0  0  0  0  0  0
   31.5982   -8.0261   63.2720 C   0  0  2  0  0  0  0  0  0  0  0  0
   32.3380   -6.5130   61.2359 C   0  0  2  0  0  0  0  0  0  0  0  0
   33.2464   -9.5166   64.9606 C   0  0  2  0  0  0  0  0  0  0  0  0
   31.6346  -12.2099   64.4683 H   0  0  0  0  0  0  0  0  0  0  0  0
   31.2415  -11.3562   65.9619 H   0  0  0  0  0  0  0  0  0  0  0  0
   30.8689   -8.1826   65.0852 H   0  0  0  0  0  0  0  0  0  0  0  0
   32.4652  -10.4668   63.4343 H   0  0  0  0  0  0  0  0  0  0  0  0
   34.8300   -8.7634   63.7845 H   0  0  0  0  0  0  0  0  0  0  0  0
   33.8947   -7.5291   64.7181 H   0  0  0  0  0  0  0  0  0  0  0  0
   29.5823  -12.1284   64.4972 H   0  0  0  0  0  0  0  0  0  0  0  0
   30.3402   -5.7053   61.4744 H   0  0  0  0  0  0  0  0  0  0  0  0
   31.6068   -4.9126   62.4914 H   0  0  0  0  0  0  0  0  0  0  0  0
   29.2822   -9.2351   65.4972 H   0  0  0  0  0  0  0  0  0  0  0  0
   28.9550   -9.0533   63.7552 H   0  0  0  0  0  0  0  0  0  0  0  0
   31.1442   -9.5105   61.9373 H   0  0  0  0  0  0  0  0  0  0  0  0
   32.9232   -9.0514   62.1474 H   0  0  0  0  0  0  0  0  0  0  0  0
   33.6303  -11.1377   67.4340 H   0  0  0  0  0  0  0  0  0  0  0  0
   32.4616  -11.6150   66.1298 H   0  0  0  0  0  0  0  0  0  0  0  0
   34.5208   -9.4125   63.7600 H   0  0  0  0  0  0  0  0  0  0  0  0
   33.8400  -10.0185   62.2121 H   0  0  0  0  0  0  0  0  0  0  0  0
   34.9590   -8.6133   62.2121 H   0  0  0  0  0  0  0  0  0  0  0  0
   32.5162   -8.3036   60.0480 H   0  0  0  0  0  0  0  0  0  0  0  0
   30.8447   -7.8361   60.3726 H   0  0  0  0  0  0  0  0  0  0  0  0
   35.0386  -10.0998   65.9559 H   0  0  0  0  0  0  0  0  0  0  0  0
   34.5258  -11.1634   64.5769 H   0  0  0  0  0  0  0  0  0  0  0  0
   34.2287  -13.1433   67.2823 H   0  0  0  0  0  0  0  0  0  0  0  0
   27.3895  -13.0337   62.8843 H   0  0  0  0  0  0  0  0  0  0  0  0
   28.7635  -13.4299   63.9510 H   0  0  0  0  0  0  0  0  0  0  0  0
   33.5842   -6.0890   62.9698 H   0  0  0  0  0  0  0  0  0  0  0  0
   34.4114   -7.0333   61.7218 H   0  0  0  0  0  0  0  0  0  0  0  0
   32.6237   -5.8539   60.4029 H   0  0  0  0  0  0  0  0  0  0  0  0
   32.9778   -9.0184   65.9038 H   0  0  0  0  0  0  0  0  0  0  0  0
  1  3  1  0
  1  8  1  0
  2  3  1  0
  2 10  1  0
  2 21  1  0
  3 23  1  0
  4  6  1  0
  4 23  1  0
  5  7  2  0
  6 14  1  6
  6 20  1  0
  6 21  1  0
  7  9  1  0
  7 21  1  0
  8 10  1  0
  8 13  1  0
  9 22  1  0
 11 15  1  0
 21 11  1  6
 12 16  1  0
 12 17  1  0
 13 18  1  0
 13 19  2  0
 15 22  1  0
 16 23  1  0
 20 22  1  0
  1 24  1  0
  1 25  1  0
  2 26  1  1
  3 27  1  6
  4 28  1  0
  4 29  1  0
  8 30  1  1
  9 31  1  0
  9 32  1  0
 10 33  1  0
 10 34  1  0
 11 35  1  0
 11 36  1  0
 12 37  1  0
 12 38  1  0
 14 39  1  0
 14 40  1  0
 14 41  1  0
 15 42  1  0
 15 43  1  0
 16 44  1  0
 16 45  1  0
 17 46  1  0
 18 47  1  0
 18 48  1  0
 20 49  1  0
 20 50  1  0
 22 51  1  6
 23 52  1  1
M  END
$$$$
1b9v_TargetDiff_39142
     RDKit          3D

 26 25  0  0  0  0  0  0  0  0999 V2000
   31.5307   -9.0822   63.0962 N   0  0  0  0  0  0  0  0  0  0  0  0
   33.8258   -8.7592   63.7689 C   0  0  0  0  0  0  0  0  0  0  0  0
   30.1858   -9.5209   63.4479 C   0  0  0  0  0  0  0  0  0  0  0  0
   32.5541   -6.9941   61.7722 C   0  0  0  0  0  0  0  0  0  0  0  0
   28.6149  -11.1997   63.0144 O   0  0  0  0  0  0  0  0  0  0  0  0
   32.5465   -9.6451   63.9705 C   0  0  0  0  0  0  0  0  0  0  0  0
   30.7325  -11.8348   63.4457 O   0  0  0  0  0  0  0  0  0  0  0  0
   31.6365   -7.6981   62.7926 C   0  0  0  0  0  0  0  0  0  0  0  0
   34.0540   -9.4809   62.4207 C   0  0  0  0  0  0  0  0  0  0  0  0
   29.8926  -10.9576   63.1573 C   0  0  0  0  0  0  0  0  0  0  0  0
   33.9577   -7.0488   61.4971 N   0  0  0  0  0  0  0  0  0  0  0  0
   30.9236   -6.8516   63.6583 O   0  0  0  0  0  0  0  0  0  0  0  0
   33.6248   -7.6813   63.6809 H   0  0  0  0  0  0  0  0  0  0  0  0
   34.6153   -8.7114   64.5334 H   0  0  0  0  0  0  0  0  0  0  0  0
   30.0441   -9.3552   64.5261 H   0  0  0  0  0  0  0  0  0  0  0  0
   29.4979   -8.9344   62.8212 H   0  0  0  0  0  0  0  0  0  0  0  0
   32.1006   -7.2590   60.8057 H   0  0  0  0  0  0  0  0  0  0  0  0
   32.5888   -6.0334   62.3068 H   0  0  0  0  0  0  0  0  0  0  0  0
   32.2145   -9.6049   65.0184 H   0  0  0  0  0  0  0  0  0  0  0  0
   32.7445  -10.7007   63.7326 H   0  0  0  0  0  0  0  0  0  0  0  0
   30.5398  -12.7867   63.2539 H   0  0  0  0  0  0  0  0  0  0  0  0
   34.3808  -10.5143   62.6087 H   0  0  0  0  0  0  0  0  0  0  0  0
   33.1154   -9.4917   61.8471 H   0  0  0  0  0  0  0  0  0  0  0  0
   34.8282   -8.9502   61.8471 H   0  0  0  0  0  0  0  0  0  0  0  0
   34.4809   -7.0692   62.3841 H   0  0  0  0  0  0  0  0  0  0  0  0
   34.1684   -7.8986   60.9546 H   0  0  0  0  0  0  0  0  0  0  0  0
  1  3  1  0
  1  6  1  0
  1  8  1  0
  2  6  1  0
  2  9  1  0
  3 10  1  0
  4  8  1  0
  4 11  1  0
  5 10  2  0
  7 10  1  0
  8 12  2  0
  2 13  1  0
  2 14  1  0
  3 15  1  0
  3 16  1  0
  4 17  1  0
  4 18  1  0
  6 19  1  0
  6 20  1  0
  7 21  1  0
  9 22  1  0
  9 23  1  0
  9 24  1  0
 11 25  1  0
 11 26  1  0
M  END
$$$$
1b9v_TargetDiff_40148
     RDKit          3D

 44 45  0  0  0  0  0  0  0  0999 V2000
   27.8673  -12.1833   64.8245 O   0  0  0  0  0  0  0  0  0  0  0  0
   33.0185   -6.3962   62.6213 O   0  0  0  0  0  0  0  0  0  0  0  0
   28.9445   -8.2753   64.5570 C   0  0  1  0  0  0  0  0  0  0  0  0
   27.2672   -9.6329   63.1334 O   0  0  0  0  0  0  0  0  0  0  0  0
   30.9409   -6.9341   64.9321 O   0  0  0  0  0  0  0  0  0  0  0  0
   31.3282   -9.3943   64.6345 C   0  0  1  0  0  0  0  0  0  0  0  0
   28.4270   -7.6881   65.7634 O   0  0  0  0  0  0  0  0  0  0  0  0
   32.1322   -7.9899   61.0856 C   0  0  0  0  0  0  0  0  0  0  0  0
   31.7348   -9.6366   63.1475 C   0  0  1  0  0  0  0  0  0  0  0  0
   33.9013   -8.9300   64.4041 C   0  0  0  0  0  0  0  0  0  0  0  0
   30.8814   -9.7783   60.0003 O   0  0  0  0  0  0  0  0  0  0  0  0
   30.4595   -8.1695   64.5427 C   0  0  1  0  0  0  0  0  0  0  0  0
   32.1880   -9.3912   60.6030 O   0  0  0  0  0  0  0  0  0  0  0  0
   29.4085  -10.5832   63.6608 C   0  0  1  0  0  0  0  0  0  0  0  0
   30.2969   -9.8509   62.6166 O   0  0  0  0  0  0  0  0  0  0  0  0
   33.2160   -9.0457   63.0445 C   0  0  2  0  0  0  0  0  0  0  0  0
   30.3981  -10.6052   64.8244 C   0  0  0  0  0  0  0  0  0  0  0  0
   33.2335   -7.7669   62.1735 C   0  0  2  0  0  0  0  0  0  0  0  0
   28.2688   -9.5762   64.1146 C   0  0  1  0  0  0  0  0  0  0  0  0
   34.7236   -7.8125   64.4142 O   0  0  0  0  0  0  0  0  0  0  0  0
   28.6076  -11.9927   63.6244 C   0  0  0  0  0  0  0  0  0  0  0  0
   34.2699  -10.1956   64.8546 O   0  0  0  0  0  0  0  0  0  0  0  0
   28.4580  -12.0312   65.6043 H   0  0  0  0  0  0  0  0  0  0  0  0
   33.0143   -6.3692   63.6109 H   0  0  0  0  0  0  0  0  0  0  0  0
   28.6290   -7.6784   63.6886 H   0  0  0  0  0  0  0  0  0  0  0  0
   26.3801   -9.6831   63.5699 H   0  0  0  0  0  0  0  0  0  0  0  0
   30.9604   -6.8842   65.9206 H   0  0  0  0  0  0  0  0  0  0  0  0
   32.1152   -9.2849   65.3952 H   0  0  0  0  0  0  0  0  0  0  0  0
   28.8260   -8.1408   66.5483 H   0  0  0  0  0  0  0  0  0  0  0  0
   32.3060   -7.3049   60.2426 H   0  0  0  0  0  0  0  0  0  0  0  0
   31.1418   -7.7923   61.5216 H   0  0  0  0  0  0  0  0  0  0  0  0
   32.1372  -10.2286   62.3122 H   0  0  0  0  0  0  0  0  0  0  0  0
   33.2735   -8.6551   65.2645 H   0  0  0  0  0  0  0  0  0  0  0  0
   30.2301   -9.9713   60.7204 H   0  0  0  0  0  0  0  0  0  0  0  0
   30.6789   -8.2007   63.4652 H   0  0  0  0  0  0  0  0  0  0  0  0
   33.8504   -9.7694   62.5118 H   0  0  0  0  0  0  0  0  0  0  0  0
   30.9813  -11.5377   64.8088 H   0  0  0  0  0  0  0  0  0  0  0  0
   29.8749  -10.5554   65.7907 H   0  0  0  0  0  0  0  0  0  0  0  0
   34.3111   -7.7309   61.9556 H   0  0  0  0  0  0  0  0  0  0  0  0
   27.6886   -9.8036   65.0211 H   0  0  0  0  0  0  0  0  0  0  0  0
   34.9151   -7.5522   65.3500 H   0  0  0  0  0  0  0  0  0  0  0  0
   29.3294  -12.8150   63.5113 H   0  0  0  0  0  0  0  0  0  0  0  0
   27.9074  -11.9790   62.7761 H   0  0  0  0  0  0  0  0  0  0  0  0
   34.2728  -10.2056   65.8445 H   0  0  0  0  0  0  0  0  0  0  0  0
  1 21  1  0
  2 18  1  0
  3  7  1  0
  3 12  1  0
  3 19  1  0
  4 19  1  0
  5 12  1  0
  6  9  1  0
  6 12  1  0
  6 17  1  0
  8 13  1  0
  8 18  1  0
  9 15  1  0
  9 16  1  0
 10 16  1  0
 10 20  1  0
 10 22  1  0
 11 13  1  0
 14 15  1  0
 14 17  1  0
 14 19  1  0
 14 21  1  6
 16 18  1  0
  1 23  1  0
  2 24  1  0
  3 25  1  6
  4 26  1  0
  5 27  1  0
  6 28  1  1
  7 29  1  0
  8 30  1  0
  8 31  1  0
  9 32  1  1
 10 33  1  0
 11 34  1  0
 12 35  1  6
 16 36  1  6
 17 37  1  0
 17 38  1  0
 18 39  1  6
 19 40  1  1
 20 41  1  0
 21 42  1  0
 21 43  1  0
 22 44  1  0
M  END
$$$$
1b9v_TargetDiff_53584
     RDKit          3D

 39 39  0  0  0  0  0  0  0  0999 V2000
   31.4193   -7.1821   62.0070 C   0  0  0  0  0  0  0  0  0  0  0  0
   32.8154   -9.3474   62.0415 C   0  0  0  0  0  0  0  0  0  0  0  0
   31.1612   -5.9614   62.4602 O   0  0  0  0  0  0  0  0  0  0  0  0
   31.1566   -9.7434   60.3370 O   0  0  0  0  0  0  0  0  0  0  0  0
   32.8204   -9.6017   65.2238 C   0  0  0  0  0  0  0  0  0  0  0  0
   28.4528   -7.3254   65.2549 O   0  0  0  0  0  0  0  0  0  0  0  0
   27.0738  -11.8951   63.4771 O   0  0  0  0  0  0  0  0  0  0  0  0
   30.2921   -9.4096   65.0803 C   0  0  0  0  0  0  0  0  0  0  0  0
   28.6367   -7.9279   63.9948 C   0  0  0  0  0  0  0  0  0  0  0  0
   30.9105   -8.2433   62.7114 N   0  0  0  0  0  0  0  0  0  0  0  0
   31.5358   -9.5477   62.9650 C   0  0  2  0  0  0  0  0  0  0  0  0
   31.9436   -7.4667   60.7695 O   0  0  0  0  0  0  0  0  0  0  0  0
   28.2247  -11.7508   64.2103 C   0  0  0  0  0  0  0  0  0  0  0  0
   32.2474   -8.8962   60.6761 C   0  0  1  0  0  0  0  0  0  0  0  0
   31.5377  -10.0653   64.4374 C   0  0  1  0  0  0  0  0  0  0  0  0
   31.5527  -11.5470   64.5684 O   0  0  0  0  0  0  0  0  0  0  0  0
   29.1486  -10.8426   63.4358 C   0  0  0  0  0  0  0  0  0  0  0  0
   29.1373   -9.4326   64.0661 C   0  0  1  0  0  0  0  0  0  0  0  0
   33.4787   -8.5760   62.4597 H   0  0  0  0  0  0  0  0  0  0  0  0
   33.4170  -10.2646   61.9594 H   0  0  0  0  0  0  0  0  0  0  0  0
   30.7277  -10.0765   61.1648 H   0  0  0  0  0  0  0  0  0  0  0  0
   32.6320   -9.6698   66.3054 H   0  0  0  0  0  0  0  0  0  0  0  0
   33.6680  -10.2504   64.9577 H   0  0  0  0  0  0  0  0  0  0  0  0
   33.0574   -8.5610   64.9577 H   0  0  0  0  0  0  0  0  0  0  0  0
   28.6534   -7.9828   65.9674 H   0  0  0  0  0  0  0  0  0  0  0  0
   26.3022  -11.9918   64.0897 H   0  0  0  0  0  0  0  0  0  0  0  0
   30.0033   -9.9705   65.9814 H   0  0  0  0  0  0  0  0  0  0  0  0
   30.5209   -8.3708   65.3607 H   0  0  0  0  0  0  0  0  0  0  0  0
   27.6767   -7.9077   63.4582 H   0  0  0  0  0  0  0  0  0  0  0  0
   29.4218   -7.3551   63.4795 H   0  0  0  0  0  0  0  0  0  0  0  0
   29.9717   -8.1084   63.1131 H   0  0  0  0  0  0  0  0  0  0  0  0
   31.0160  -10.4816   62.7048 H   0  0  0  0  0  0  0  0  0  0  0  0
   27.9928  -11.3041   65.1884 H   0  0  0  0  0  0  0  0  0  0  0  0
   28.6986  -12.7286   64.3817 H   0  0  0  0  0  0  0  0  0  0  0  0
   32.9600   -9.0002   59.8446 H   0  0  0  0  0  0  0  0  0  0  0  0
   31.5552  -11.7935   65.5272 H   0  0  0  0  0  0  0  0  0  0  0  0
   30.1705  -11.2486   63.4653 H   0  0  0  0  0  0  0  0  0  0  0  0
   28.8077  -10.7789   62.3919 H   0  0  0  0  0  0  0  0  0  0  0  0
   28.1456   -9.5444   63.6034 H   0  0  0  0  0  0  0  0  0  0  0  0
  1  3  2  0
  1 10  1  0
  1 12  1  0
  2 11  1  0
  2 14  1  0
  4 14  1  0
  5 15  1  0
  6  9  1  0
  7 13  1  0
  8 15  1  0
  8 18  1  0
  9 18  1  0
 10 11  1  0
 11 15  1  0
 12 14  1  0
 13 17  1  0
 15 16  1  6
 17 18  1  0
  2 19  1  0
  2 20  1  0
  4 21  1  0
  5 22  1  0
  5 23  1  0
  5 24  1  0
  6 25  1  0
  7 26  1  0
  8 27  1  0
  8 28  1  0
  9 29  1  0
  9 30  1  0
 10 31  1  0
 11 32  1  6
 13 33  1  0
 13 34  1  0
 14 35  1  6
 16 36  1  0
 17 37  1  0
 17 38  1  0
 18 39  1  1
M  END
$$$$
1b9v_TargetDiff_53709
     RDKit          3D

 54 56  0  0  0  0  0  0  0  0999 V2000
   28.0817  -11.0905   63.5343 C   0  0  0  0  0  0  0  0  0  0  0  0
   34.7215  -10.4914   65.3460 N   0  0  0  0  0  0  0  0  0  0  0  0
   28.9743   -8.4259   65.8198 O   0  0  0  0  0  0  0  0  0  0  0  0
   30.6536   -9.3593   63.1128 C   0  0  2  0  0  0  0  0  0  0  0  0
   34.3490   -9.5700   64.2130 C   0  0  0  0  0  0  0  0  0  0  0  0
   30.6433   -9.2864   61.6029 C   0  0  2  0  0  0  0  0  0  0  0  0
   32.2136   -8.8652   59.7776 N   0  0  0  0  0  0  0  0  0  0  0  0
   29.0013   -9.4443   64.9705 C   0  0  1  0  0  0  0  0  0  0  0  0
   30.1742  -10.1642   60.5787 O   0  0  0  0  0  0  0  0  0  0  0  0
   27.9172   -9.6170   63.9387 C   0  0  1  0  0  0  0  0  0  0  0  0
   29.1876  -11.3841   62.6011 O   0  0  0  0  0  0  0  0  0  0  0  0
   26.1489   -7.9468   64.0241 C   0  0  0  0  0  0  0  0  0  0  0  0
   32.2455   -7.5280   63.0759 O   0  0  0  0  0  0  0  0  0  0  0  0
   32.1374   -7.2488   61.6746 C   0  0  2  0  0  0  0  0  0  0  0  0
   33.5353  -11.5581   67.1835 N   0  0  0  0  0  0  0  0  0  0  0  0
   31.5261   -6.0609   61.3449 O   0  0  0  0  0  0  0  0  0  0  0  0
   31.6232   -8.3606   60.9219 C   0  0  2  0  0  0  0  0  0  0  0  0
   32.9186   -9.7547   64.1172 C   0  0  2  0  0  0  0  0  0  0  0  0
   31.0862  -10.1545   65.6454 C   0  0  1  0  0  0  0  0  0  0  0  0
   31.9796   -8.8172   63.5017 C   0  0  2  0  0  0  0  0  0  0  0  0
   27.6340   -8.1641   63.4744 C   0  0  0  0  0  0  0  0  0  0  0  0
   30.5409  -10.6800   66.7974 O   0  0  0  0  0  0  0  0  0  0  0  0
   33.6210  -10.8458   66.1112 C   0  0  0  0  0  0  0  0  0  0  0  0
   32.5196  -10.2437   65.4413 C   0  0  1  0  0  0  0  0  0  0  0  0
   30.2355  -10.0228   64.4603 C   0  0  2  0  0  0  0  0  0  0  0  0
   28.2503  -11.6746   64.4510 H   0  0  0  0  0  0  0  0  0  0  0  0
   27.1599  -11.3558   62.9959 H   0  0  0  0  0  0  0  0  0  0  0  0
   35.6805  -10.8191   65.5301 H   0  0  0  0  0  0  0  0  0  0  0  0
   28.9834   -8.7700   66.7480 H   0  0  0  0  0  0  0  0  0  0  0  0
   29.5765   -9.3382   62.8908 H   0  0  0  0  0  0  0  0  0  0  0  0
   34.6000   -8.5258   64.4509 H   0  0  0  0  0  0  0  0  0  0  0  0
   34.8831   -9.7883   63.2765 H   0  0  0  0  0  0  0  0  0  0  0  0
   29.6751   -9.1388   62.1038 H   0  0  0  0  0  0  0  0  0  0  0  0
   32.9710   -9.5125   60.0389 H   0  0  0  0  0  0  0  0  0  0  0  0
   31.5084   -9.3688   59.2208 H   0  0  0  0  0  0  0  0  0  0  0  0
   28.7551  -10.0268   65.8705 H   0  0  0  0  0  0  0  0  0  0  0  0
   29.7503  -10.9574   60.9925 H   0  0  0  0  0  0  0  0  0  0  0  0
   26.8471   -9.7705   63.7353 H   0  0  0  0  0  0  0  0  0  0  0  0
   30.0049  -11.6011   63.1158 H   0  0  0  0  0  0  0  0  0  0  0  0
   26.1611   -7.9486   65.1240 H   0  0  0  0  0  0  0  0  0  0  0  0
   25.7618   -6.9825   63.6633 H   0  0  0  0  0  0  0  0  0  0  0  0
   25.5017   -8.7598   63.6633 H   0  0  0  0  0  0  0  0  0  0  0  0
   33.1823   -7.0979   61.3657 H   0  0  0  0  0  0  0  0  0  0  0  0
   32.6177  -11.7192   67.6228 H   0  0  0  0  0  0  0  0  0  0  0  0
   31.2772   -5.5772   62.1720 H   0  0  0  0  0  0  0  0  0  0  0  0
   31.1013   -7.5743   60.3568 H   0  0  0  0  0  0  0  0  0  0  0  0
   32.8005  -10.4348   63.2608 H   0  0  0  0  0  0  0  0  0  0  0  0
   31.0511   -9.1085   65.9839 H   0  0  0  0  0  0  0  0  0  0  0  0
   32.3478   -8.3546   64.4293 H   0  0  0  0  0  0  0  0  0  0  0  0
   28.3396   -7.4516   63.9266 H   0  0  0  0  0  0  0  0  0  0  0  0
   27.7420   -8.0070   62.3910 H   0  0  0  0  0  0  0  0  0  0  0  0
   30.9720  -10.2646   67.5859 H   0  0  0  0  0  0  0  0  0  0  0  0
   32.3057  -10.1393   66.5152 H   0  0  0  0  0  0  0  0  0  0  0  0
   30.2342  -11.0431   64.0493 H   0  0  0  0  0  0  0  0  0  0  0  0
  1 10  1  0
  1 11  1  0
  2  5  1  0
  2 23  1  0
  3  8  1  0
  4  6  1  0
  4 20  1  0
  4 25  1  0
  5 18  1  0
  6  9  1  0
  6 17  1  0
  7 17  1  0
  8 10  1  0
  8 25  1  0
 10 21  1  0
 12 21  1  0
 13 14  1  0
 13 20  1  0
 14 16  1  0
 14 17  1  0
 15 23  2  3
 18 20  1  0
 18 24  1  0
 19 22  1  0
 19 24  1  0
 19 25  1  0
 23 24  1  0
  1 26  1  0
  1 27  1  0
  2 28  1  0
  3 29  1  0
  4 30  1  1
  5 31  1  0
  5 32  1  0
  6 33  1  1
  7 34  1  0
  7 35  1  0
  8 36  1  1
  9 37  1  0
 10 38  1  1
 11 39  1  0
 12 40  1  0
 12 41  1  0
 12 42  1  0
 14 43  1  6
 15 44  1  0
 16 45  1  0
 17 46  1  6
 18 47  1  6
 19 48  1  1
 20 49  1  1
 21 50  1  0
 21 51  1  0
 22 52  1  0
 24 53  1  1
 25 54  1  6
M  END
$$$$
1b9v_TargetDiff_79308
     RDKit          3D

 41 42  0  0  0  0  0  0  0  0999 V2000
   30.9607   -6.7216   62.3139 C   0  0  0  0  0  0  0  0  0  0  0  0
   27.9423  -12.2965   63.7941 C   0  0  0  0  0  0  0  0  0  0  0  0
   33.3297   -8.4788   61.4642 N   0  0  0  0  0  0  0  0  0  0  0  0
   31.6526   -9.7492   64.4266 C   0  0  0  0  0  0  0  0  0  0  0  0
   31.7461   -6.6459   61.1973 C   0  0  0  0  0  0  0  0  0  0  0  0
   34.3923  -10.0261   64.7489 N   0  0  0  0  0  0  0  0  0  0  0  0
   29.8932  -12.0834   66.1130 O   0  0  0  0  0  0  0  0  0  0  0  0
   32.7063   -7.4955   60.7916 C   0  0  0  0  0  0  0  0  0  0  0  0
   30.0329  -11.5403   64.8788 C   0  0  1  0  0  0  0  0  0  0  0  0
   29.8259  -11.4725   62.4596 O   0  0  0  0  0  0  0  0  0  0  0  0
   29.4834  -12.1513   63.6645 C   0  0  2  0  0  0  0  0  0  0  0  0
   30.8759   -7.7537   63.2484 C   0  0  0  0  0  0  0  0  0  0  0  0
   33.1311   -8.8269   62.7763 C   0  0  0  0  0  0  0  0  0  0  0  0
   34.3348   -9.4397   63.4386 C   0  0  0  0  0  0  0  0  0  0  0  0
   29.6795   -7.8790   64.0215 C   0  0  0  0  0  0  0  0  0  0  0  0
   28.2531   -6.9763   63.8485 C   0  0  0  0  0  0  0  0  0  0  0  0
   31.8809   -8.7386   63.4804 C   0  0  1  0  0  0  0  0  0  0  0  0
   30.3741  -10.0498   64.7964 C   0  0  2  0  0  0  0  0  0  0  0  0
   29.4862   -8.9473   64.8653 N   0  0  0  0  0  0  0  0  0  0  0  0
   27.3798  -11.0843   63.2838 O   0  0  0  0  0  0  0  0  0  0  0  0
   30.3100   -5.8544   62.4998 H   0  0  0  0  0  0  0  0  0  0  0  0
   27.5901  -13.1568   63.2060 H   0  0  0  0  0  0  0  0  0  0  0  0
   27.6435  -12.4667   64.8390 H   0  0  0  0  0  0  0  0  0  0  0  0
   32.0932  -10.6719   64.0211 H   0  0  0  0  0  0  0  0  0  0  0  0
   32.0984   -9.3450   65.3474 H   0  0  0  0  0  0  0  0  0  0  0  0
   31.5696   -5.7771   60.5462 H   0  0  0  0  0  0  0  0  0  0  0  0
   35.2782  -10.4175   65.0995 H   0  0  0  0  0  0  0  0  0  0  0  0
   33.5477  -10.0551   65.3377 H   0  0  0  0  0  0  0  0  0  0  0  0
   30.0709  -11.3926   66.7995 H   0  0  0  0  0  0  0  0  0  0  0  0
   33.0319   -7.3661   59.7489 H   0  0  0  0  0  0  0  0  0  0  0  0
   30.9670  -12.1118   64.7747 H   0  0  0  0  0  0  0  0  0  0  0  0
   30.2608  -10.6105   62.6786 H   0  0  0  0  0  0  0  0  0  0  0  0
   29.9511  -13.1435   63.5827 H   0  0  0  0  0  0  0  0  0  0  0  0
   35.2694   -9.4387   62.8585 H   0  0  0  0  0  0  0  0  0  0  0  0
   27.8555   -6.7247   64.8428 H   0  0  0  0  0  0  0  0  0  0  0  0
   28.4698   -6.0506   63.2953 H   0  0  0  0  0  0  0  0  0  0  0  0
   27.5093   -7.5684   63.2953 H   0  0  0  0  0  0  0  0  0  0  0  0
   31.4404   -9.3727   62.6969 H   0  0  0  0  0  0  0  0  0  0  0  0
   29.8707  -10.1924   65.7640 H   0  0  0  0  0  0  0  0  0  0  0  0
   28.7066   -8.9463   65.5384 H   0  0  0  0  0  0  0  0  0  0  0  0
   27.1099  -10.5026   64.0380 H   0  0  0  0  0  0  0  0  0  0  0  0
  1  5  2  0
  1 12  1  0
  2 11  1  0
  2 20  1  0
  3  8  2  0
  3 13  1  0
  4 17  1  0
  4 18  1  0
  5  8  1  0
  6 14  1  0
  7  9  1  0
  9 11  1  0
  9 18  1  0
 10 11  1  0
 12 15  2  0
 12 17  1  0
 13 14  2  3
 13 17  1  0
 15 16  1  0
 15 19  1  0
 18 19  1  0
  1 21  1  0
  2 22  1  0
  2 23  1  0
  4 24  1  0
  4 25  1  0
  5 26  1  0
  6 27  1  0
  6 28  1  0
  7 29  1  0
  8 30  1  0
  9 31  1  6
 10 32  1  0
 11 33  1  6
 14 34  1  0
 16 35  1  0
 16 36  1  0
 16 37  1  0
 17 38  1  6
 18 39  1  1
 19 40  1  0
 20 41  1  0
M  END
$$$$
1b9v_TargetDiff_79314
     RDKit          3D

 49 51  0  0  0  0  0  0  0  0999 V2000
   30.5107  -10.6399   63.0859 C   0  0  2  0  0  0  0  0  0  0  0  0
   31.2361   -5.8754   61.9633 C   0  0  0  0  0  0  0  0  0  0  0  0
   28.6172  -12.2716   63.4549 C   0  0  0  0  0  0  0  0  0  0  0  0
   30.2691   -8.2890   63.6675 C   0  0  0  0  0  0  0  0  0  0  0  0
   33.7914   -9.9058   64.9764 C   0  0  0  0  0  0  0  0  0  0  0  0
   31.3024   -8.5226   61.3734 C   0  0  0  0  0  0  0  0  0  0  0  0
   34.4009   -9.3967   63.7676 N   0  0  0  0  0  0  0  0  0  0  0  0
   32.6058   -7.5482   63.5247 C   0  0  2  0  0  0  0  0  0  0  0  0
   27.6745  -11.1280   63.6337 C   0  0  0  0  0  0  0  0  0  0  0  0
   31.5896   -8.5185   62.9377 C   0  0  1  0  0  0  0  0  0  0  0  0
   32.2093   -6.0760   63.1699 C   0  0  0  0  0  0  0  0  0  0  0  0
   29.5890   -9.5845   63.5310 C   0  0  2  0  0  0  0  0  0  0  0  0
   30.0224  -11.9022   63.7968 C   0  0  0  0  0  0  0  0  0  0  0  0
   27.3297   -8.5071   63.6959 C   0  0  0  0  0  0  0  0  0  0  0  0
   28.2151   -9.8101   63.9950 C   0  0  1  0  0  0  0  0  0  0  0  0
   34.0092   -8.0738   63.3873 C   0  0  2  0  0  0  0  0  0  0  0  0
   34.6511   -7.7364   62.0558 F   0  0  0  0  0  0  0  0  0  0  0  0
   31.9238   -9.9787   63.2594 C   0  0  1  0  0  0  0  0  0  0  0  0
   32.3308  -10.1102   64.7281 C   0  0  0  0  0  0  0  0  0  0  0  0
   30.5650  -11.0091   62.0511 H   0  0  0  0  0  0  0  0  0  0  0  0
   30.2237   -5.6667   62.3395 H   0  0  0  0  0  0  0  0  0  0  0  0
   31.5812   -5.0295   61.3506 H   0  0  0  0  0  0  0  0  0  0  0  0
   31.2185   -6.7888   61.3506 H   0  0  0  0  0  0  0  0  0  0  0  0
   28.2994  -13.0981   64.1074 H   0  0  0  0  0  0  0  0  0  0  0  0
   28.5936  -12.5664   62.3954 H   0  0  0  0  0  0  0  0  0  0  0  0
   30.4396   -8.0411   64.7256 H   0  0  0  0  0  0  0  0  0  0  0  0
   29.6881   -7.4484   63.2603 H   0  0  0  0  0  0  0  0  0  0  0  0
   34.2577  -10.8635   65.2510 H   0  0  0  0  0  0  0  0  0  0  0  0
   33.9349   -9.1894   65.7987 H   0  0  0  0  0  0  0  0  0  0  0  0
   30.2163   -8.5381   61.2001 H   0  0  0  0  0  0  0  0  0  0  0  0
   31.7333   -7.6182   60.9191 H   0  0  0  0  0  0  0  0  0  0  0  0
   31.7590   -9.4143   60.9191 H   0  0  0  0  0  0  0  0  0  0  0  0
   35.4220   -9.3983   63.9026 H   0  0  0  0  0  0  0  0  0  0  0  0
   32.5872   -7.4764   64.6222 H   0  0  0  0  0  0  0  0  0  0  0  0
   27.1327  -11.0051   62.6843 H   0  0  0  0  0  0  0  0  0  0  0  0
   27.0729  -11.4157   64.5085 H   0  0  0  0  0  0  0  0  0  0  0  0
   33.1358   -5.5279   62.9438 H   0  0  0  0  0  0  0  0  0  0  0  0
   31.6565   -5.7092   64.0473 H   0  0  0  0  0  0  0  0  0  0  0  0
   28.6859   -9.6433   62.9058 H   0  0  0  0  0  0  0  0  0  0  0  0
   30.6805  -12.7373   63.5149 H   0  0  0  0  0  0  0  0  0  0  0  0
   30.0494  -11.6964   64.8770 H   0  0  0  0  0  0  0  0  0  0  0  0
   27.0185   -8.0491   64.6464 H   0  0  0  0  0  0  0  0  0  0  0  0
   27.9245   -7.7844   63.1181 H   0  0  0  0  0  0  0  0  0  0  0  0
   26.4387   -8.7939   63.1181 H   0  0  0  0  0  0  0  0  0  0  0  0
   28.1915   -9.9118   65.0900 H   0  0  0  0  0  0  0  0  0  0  0  0
   34.3948   -7.4965   64.2406 H   0  0  0  0  0  0  0  0  0  0  0  0
   32.7354  -10.4033   62.6503 H   0  0  0  0  0  0  0  0  0  0  0  0
   32.0594  -11.1188   65.0730 H   0  0  0  0  0  0  0  0  0  0  0  0
   31.8012   -9.3174   65.2768 H   0  0  0  0  0  0  0  0  0  0  0  0
  1 12  1  0
  1 13  1  0
  1 18  1  0
  2 11  1  0
  3  9  1  0
  3 13  1  0
  4 10  1  0
  4 12  1  0
  5  7  1  0
  5 19  1  0
 10  6  1  6
  7 16  1  0
  8 10  1  0
  8 11  1  0
  8 16  1  0
  9 15  1  0
 10 18  1  0
 12 15  1  0
 14 15  1  0
 16 17  1  0
 18 19  1  0
  1 20  1  6
  2 21  1  0
  2 22  1  0
  2 23  1  0
  3 24  1  0
  3 25  1  0
  4 26  1  0
  4 27  1  0
  5 28  1  0
  5 29  1  0
  6 30  1  0
  6 31  1  0
  6 32  1  0
  7 33  1  0
  8 34  1  1
  9 35  1  0
  9 36  1  0
 11 37  1  0
 11 38  1  0
 12 39  1  6
 13 40  1  0
 13 41  1  0
 14 42  1  0
 14 43  1  0
 14 44  1  0
 15 45  1  1
 16 46  1  1
 18 47  1  6
 19 48  1  0
 19 49  1  0
M  END
$$$$
1b9v_TargetDiff_79878
     RDKit          3D

 33 35  0  0  0  0  0  0  0  0999 V2000
   34.1271   -8.2625   63.6422 C   0  0  0  0  0  0  0  0  0  0  0  0
   28.9616  -12.1344   62.9254 N   0  0  0  0  0  0  0  0  0  0  0  0
   31.3113  -10.7089   63.8473 C   0  0  0  0  0  0  0  0  0  0  0  0
   32.5032   -6.4519   62.6208 C   0  0  0  0  0  0  0  0  0  0  0  0
   30.4583   -6.6084   63.8186 N   0  0  0  0  0  0  0  0  0  0  0  0
   28.8951  -10.6884   63.1237 C   0  0  0  0  0  0  0  0  0  0  0  0
   30.5976   -7.9316   64.1121 C   0  0  0  0  0  0  0  0  0  0  0  0
   31.1005   -6.0010   62.7391 C   0  0  0  0  0  0  0  0  0  0  0  0
   29.7318   -8.9875   64.6369 C   0  0  0  0  0  0  0  0  0  0  0  0
   32.8744   -7.6253   63.3909 N   0  0  0  0  0  0  0  0  0  0  0  0
   32.3148   -9.6757   64.2748 C   0  0  1  0  0  0  0  0  0  0  0  0
   29.9329  -10.2724   64.0477 C   0  0  2  0  0  0  0  0  0  0  0  0
   33.7953   -9.5549   64.1657 C   0  0  0  0  0  0  0  0  0  0  0  0
   31.8713   -8.3984   63.8574 C   0  0  0  0  0  0  0  0  0  0  0  0
   34.7034   -8.3605   62.7104 H   0  0  0  0  0  0  0  0  0  0  0  0
   34.7488   -7.6839   64.3413 H   0  0  0  0  0  0  0  0  0  0  0  0
   28.9833  -12.6059   63.8409 H   0  0  0  0  0  0  0  0  0  0  0  0
   28.1341  -12.4470   62.3977 H   0  0  0  0  0  0  0  0  0  0  0  0
   31.4606  -10.9235   62.7788 H   0  0  0  0  0  0  0  0  0  0  0  0
   31.4702  -11.6031   64.4680 H   0  0  0  0  0  0  0  0  0  0  0  0
   32.6944   -6.6740   61.5606 H   0  0  0  0  0  0  0  0  0  0  0  0
   33.1083   -5.6306   63.0324 H   0  0  0  0  0  0  0  0  0  0  0  0
   29.8527   -6.0315   64.4197 H   0  0  0  0  0  0  0  0  0  0  0  0
   29.0396  -10.1802   62.1589 H   0  0  0  0  0  0  0  0  0  0  0  0
   27.9113  -10.4228   63.5380 H   0  0  0  0  0  0  0  0  0  0  0  0
   31.0863   -4.9104   62.8821 H   0  0  0  0  0  0  0  0  0  0  0  0
   30.5685   -6.2817   61.8181 H   0  0  0  0  0  0  0  0  0  0  0  0
   29.9142   -9.0742   65.7182 H   0  0  0  0  0  0  0  0  0  0  0  0
   28.7003   -8.6926   64.3940 H   0  0  0  0  0  0  0  0  0  0  0  0
   32.2954  -10.1300   65.2764 H   0  0  0  0  0  0  0  0  0  0  0  0
   29.7342  -10.9818   64.8646 H   0  0  0  0  0  0  0  0  0  0  0  0
   34.1790  -10.3344   63.4910 H   0  0  0  0  0  0  0  0  0  0  0  0
   34.2496   -9.6779   65.1599 H   0  0  0  0  0  0  0  0  0  0  0  0
  1 10  1  0
  1 13  1  0
  2  6  1  0
  3 11  1  0
  3 12  1  0
  4  8  1  0
  4 10  1  0
  5  7  1  0
  5  8  1  0
  6 12  1  0
  7  9  1  0
  7 14  2  0
  9 12  1  0
 10 14  1  0
 11 13  1  0
 11 14  1  0
  1 15  1  0
  1 16  1  0
  2 17  1  0
  2 18  1  0
  3 19  1  0
  3 20  1  0
  4 21  1  0
  4 22  1  0
  5 23  1  0
  6 24  1  0
  6 25  1  0
  8 26  1  0
  8 27  1  0
  9 28  1  0
  9 29  1  0
 11 30  1  1
 12 31  1  1
 13 32  1  0
 13 33  1  0
M  END
$$$$
1b9v_TargetDiff_82312
     RDKit          3D

 42 42  0  0  0  0  0  0  0  0999 V2000
   32.2102  -11.5916   66.0118 C   0  0  0  0  0  0  0  0  0  0  0  0
   32.1084   -7.7345   61.4139 C   0  0  1  0  0  0  0  0  0  0  0  0
   32.7114  -13.8687   66.4504 N   0  0  0  0  0  0  0  0  0  0  0  0
   31.7817  -13.0092   66.2568 C   0  0  0  0  0  0  0  0  0  0  0  0
   30.5773  -13.2888   66.3815 O   0  0  0  0  0  0  0  0  0  0  0  0
   31.5232   -6.5114   62.1824 C   0  0  0  0  0  0  0  0  0  0  0  0
   30.2411   -9.9945   59.2667 N   0  0  0  0  0  0  0  0  0  0  0  0
   33.2702   -8.1014   62.4154 C   0  0  0  0  0  0  0  0  0  0  0  0
   30.1053  -10.1964   57.9501 N   0  0  0  0  0  0  0  0  0  0  0  0
   31.2791   -8.8523   61.1526 C   0  0  0  0  0  0  0  0  0  0  0  0
   31.6883   -6.6095   63.6900 C   0  0  1  0  0  0  0  0  0  0  0  0
   31.0496  -10.9124   65.4382 N   0  0  0  0  0  0  0  0  0  0  0  0
   32.1553  -10.2939   63.4876 C   0  0  0  0  0  0  0  0  0  0  0  0
   31.0498   -6.5068   64.9422 O   0  0  0  0  0  0  0  0  0  0  0  0
   31.9171   -8.4412   58.9841 N   0  0  0  0  0  0  0  0  0  0  0  0
   31.2573   -9.1597   59.7621 C   0  0  0  0  0  0  0  0  0  0  0  0
   31.0230  -11.3023   64.0003 C   0  0  0  0  0  0  0  0  0  0  0  0
   32.6668   -7.8416   63.8526 C   0  0  1  0  0  0  0  0  0  0  0  0
   31.8863   -9.0425   64.1476 O   0  0  0  0  0  0  0  0  0  0  0  0
   32.5045  -11.1126   66.9573 H   0  0  0  0  0  0  0  0  0  0  0  0
   33.0782  -11.5442   65.3377 H   0  0  0  0  0  0  0  0  0  0  0  0
   32.3557   -7.4732   60.3744 H   0  0  0  0  0  0  0  0  0  0  0  0
   32.4725  -14.8556   66.6232 H   0  0  0  0  0  0  0  0  0  0  0  0
   33.6979  -13.5730   66.4333 H   0  0  0  0  0  0  0  0  0  0  0  0
   32.0363   -5.6029   61.8340 H   0  0  0  0  0  0  0  0  0  0  0  0
   30.4432   -6.4848   61.9754 H   0  0  0  0  0  0  0  0  0  0  0  0
   29.5946  -10.4554   59.9228 H   0  0  0  0  0  0  0  0  0  0  0  0
   33.5596   -9.1566   62.3023 H   0  0  0  0  0  0  0  0  0  0  0  0
   34.1768   -7.5055   62.2335 H   0  0  0  0  0  0  0  0  0  0  0  0
   29.5375  -11.0405   57.7890 H   0  0  0  0  0  0  0  0  0  0  0  0
   29.6391   -9.3826   57.5242 H   0  0  0  0  0  0  0  0  0  0  0  0
   31.6625   -9.7216   61.7069 H   0  0  0  0  0  0  0  0  0  0  0  0
   30.2551   -8.6106   61.4734 H   0  0  0  0  0  0  0  0  0  0  0  0
   31.5911   -5.5138   63.6912 H   0  0  0  0  0  0  0  0  0  0  0  0
   30.1859  -11.2179   65.9090 H   0  0  0  0  0  0  0  0  0  0  0  0
   33.1536  -10.6659   63.7617 H   0  0  0  0  0  0  0  0  0  0  0  0
   32.1411  -10.1882   62.3928 H   0  0  0  0  0  0  0  0  0  0  0  0
   31.7191   -6.6145   65.6637 H   0  0  0  0  0  0  0  0  0  0  0  0
   32.6608   -7.8311   59.3523 H   0  0  0  0  0  0  0  0  0  0  0  0
   31.3003  -12.3557   63.8472 H   0  0  0  0  0  0  0  0  0  0  0  0
   30.0477  -11.2365   63.4959 H   0  0  0  0  0  0  0  0  0  0  0  0
   33.4121   -7.6417   64.6366 H   0  0  0  0  0  0  0  0  0  0  0  0
  1  4  1  0
  1 12  1  0
  2  6  1  0
  2  8  1  0
  2 10  1  0
  3  4  1  0
  4  5  2  0
  6 11  1  0
  7  9  1  0
  7 16  1  0
  8 18  1  0
 10 16  1  0
 11 14  1  0
 11 18  1  0
 12 17  1  0
 13 17  1  0
 13 19  1  0
 15 16  2  3
 18 19  1  0
  1 20  1  0
  1 21  1  0
  2 22  1  6
  3 23  1  0
  3 24  1  0
  6 25  1  0
  6 26  1  0
  7 27  1  0
  8 28  1  0
  8 29  1  0
  9 30  1  0
  9 31  1  0
 10 32  1  0
 10 33  1  0
 11 34  1  1
 12 35  1  0
 13 36  1  0
 13 37  1  0
 14 38  1  0
 15 39  1  0
 17 40  1  0
 17 41  1  0
 18 42  1  1
M  END
$$$$
1b9v_TargetDiff_82321
     RDKit          3D

 20 19  0  0  0  0  0  0  0  0999 V2000
   34.3768   -9.8894   62.4065 O   0  0  0  0  0  0  0  0  0  0  0  0
   29.7125   -9.4723   62.9340 C   0  0  0  0  0  0  0  0  0  0  0  0
   30.9998  -10.2621   62.9444 C   0  0  1  0  0  0  0  0  0  0  0  0
   32.2854   -9.7798   63.5989 C   0  0  0  0  0  0  0  0  0  0  0  0
   33.5611   -7.1536   61.3018 O   0  0  0  0  0  0  0  0  0  0  0  0
   32.7668   -8.2395   61.6168 C   0  0  0  0  0  0  0  0  0  0  0  0
   31.4589   -7.9945   61.4455 O   0  0  0  0  0  0  0  0  0  0  0  0
   28.6296  -10.1320   62.5665 O   0  0  0  0  0  0  0  0  0  0  0  0
   30.6900  -11.5920   63.1716 O   0  0  0  0  0  0  0  0  0  0  0  0
   33.3308   -8.9381   62.8387 C   0  0  2  0  0  0  0  0  0  0  0  0
   34.8121  -10.2853   63.2026 H   0  0  0  0  0  0  0  0  0  0  0  0
   29.5442   -9.0904   63.9518 H   0  0  0  0  0  0  0  0  0  0  0  0
   29.8528   -8.6884   62.1752 H   0  0  0  0  0  0  0  0  0  0  0  0
   31.3951  -10.0555   61.9389 H   0  0  0  0  0  0  0  0  0  0  0  0
   31.9802   -9.1780   64.4676 H   0  0  0  0  0  0  0  0  0  0  0  0
   32.8267  -10.7235   63.7612 H   0  0  0  0  0  0  0  0  0  0  0  0
   30.7933   -8.7009   61.6404 H   0  0  0  0  0  0  0  0  0  0  0  0
   28.1370  -10.4321   63.3711 H   0  0  0  0  0  0  0  0  0  0  0  0
   30.6509  -11.7598   64.1465 H   0  0  0  0  0  0  0  0  0  0  0  0
   33.7046   -8.1425   63.4999 H   0  0  0  0  0  0  0  0  0  0  0  0
  1 10  1  0
  2  3  1  0
  2  8  1  0
  3  4  1  0
  3  9  1  0
  4 10  1  0
  5  6  2  0
  6  7  1  0
  6 10  1  0
  1 11  1  0
  2 12  1  0
  2 13  1  0
  3 14  1  6
  4 15  1  0
  4 16  1  0
  7 17  1  0
  8 18  1  0
  9 19  1  0
 10 20  1  1
M  END
$$$$
